* Nettran: AMD.64 Release B-2008.09.SP3.HF3.24003 2011/01/23
* Created:  5/17/2011  18:00
* Options: -cdl saed90nm.cdl -outType spice -outName saed90nm.sp 

.SUBCKT XOR3X2 IN1 IN2 IN3 Q VDD VSS 
mmp22 net9 IN3 net11 VDD p12 M=1 W=0.58u L=0.1u 
mmp21 net3 IN2 VDD VDD p12 M=1 W=0.64u L=0.1u 
mmp20 Q net11 VDD VDD p12 M=2 W=1.12u L=0.1u 
mmp19 net2 IN2 VDD VDD p12 M=1 W=0.42u L=0.1u 
mmp18 net8 IN1 net5 VDD p12 M=1 W=0.64u L=0.1u 
mmp17 net8 net1 net3 VDD p12 M=1 W=0.64u L=0.1u 
mmp16 net9 net8 VDD VDD p12 M=1 W=0.35u L=0.1u 
mmp15 net1 IN1 VDD VDD p12 M=1 W=0.42u L=0.1u 
mmp14 net5 net2 VDD VDD p12 M=1 W=0.64u L=0.1u 
mmp13 net7 IN3 VDD VDD p12 M=1 W=0.35u L=0.1u 
mmp12 net8 net7 net11 VDD p12 M=1 W=0.58u L=0.1u 
mmn22 net6 IN2 VSS VSS n12 M=1 W=0.23u L=0.1u 
mmn21 net1 IN1 VSS VSS n12 M=1 W=0.23u L=0.1u 
mmn20 Q net11 VSS VSS n12 M=2 W=0.5u L=0.1u 
mmn19 net9 net7 net11 VSS n12 M=1 W=0.14u L=0.1u 
mmn18 net8 IN1 net6 VSS n12 M=1 W=0.23u L=0.1u 
mmn17 net8 IN3 net11 VSS n12 M=1 W=0.14u L=0.1u 
mmn16 net9 net8 VSS VSS n12 M=1 W=0.14u L=0.1u 
mmn15 net8 net1 net4 VSS n12 M=1 W=0.23u L=0.1u 
mmn14 net2 IN2 VSS VSS n12 M=1 W=0.23u L=0.1u 
mmn13 net7 IN3 VSS VSS n12 M=1 W=0.21u L=0.1u 
mmn12 net4 net2 VSS VSS n12 M=1 W=0.23u L=0.1u 
.ENDS

.SUBCKT XOR3X1 IN1 IN2 IN3 Q VDD VSS 
mmp11 Q net11 VDD VDD p12 M=1 W=1.12u L=0.1u 
mmp8 net9 net8 VDD VDD p12 M=1 W=0.42u L=0.1u 
mmp10 net8 net7 net11 VDD p12 M=1 W=0.52u L=0.1u 
mmp9 net9 IN3 net11 VDD p12 M=1 W=0.52u L=0.1u 
mmp5 net5 net2 VDD VDD p12 M=1 W=0.64u L=0.1u 
mmp7 net7 IN3 VDD VDD p12 M=1 W=0.42u L=0.1u 
mmp3 net3 IN2 VDD VDD p12 M=1 W=0.64u L=0.1u 
mmp6 net8 IN1 net5 VDD p12 M=1 W=0.64u L=0.1u 
mmp2 net2 IN2 VDD VDD p12 M=1 W=0.42u L=0.1u 
mmp4 net8 net1 net3 VDD p12 M=1 W=0.64u L=0.1u 
mmp1 net1 IN1 VDD VDD p12 M=1 W=0.42u L=0.1u 
mmn11 Q net11 VSS VSS n12 M=1 W=0.44u L=0.1u 
mmn8 net9 net8 VSS VSS n12 M=1 W=0.14u L=0.1u 
mmn10 net8 IN3 net11 VSS n12 M=1 W=0.14u L=0.1u 
mmn9 net9 net7 net11 VSS n12 M=1 W=0.14u L=0.1u 
mmn1 net1 IN1 VSS VSS n12 M=1 W=0.23u L=0.1u 
mmn2 net2 IN2 VSS VSS n12 M=1 W=0.23u L=0.1u 
mmn5 net8 IN1 net6 VSS n12 M=1 W=0.23u L=0.1u 
mmn4 net4 net2 VSS VSS n12 M=1 W=0.23u L=0.1u 
mmn3 net8 net1 net4 VSS n12 M=1 W=0.23u L=0.1u 
mmn7 net7 IN3 VSS VSS n12 M=1 W=0.21u L=0.1u 
mmn6 net6 IN2 VSS VSS n12 M=1 W=0.23u L=0.1u 
.ENDS

.SUBCKT XOR2X2 IN1 IN2 Q VDD VSS 
mmp14 net5 net2 VDD VDD p12 M=1 W=0.6u L=0.1u 
mmp13 net1 IN1 VDD VDD p12 M=1 W=0.32u L=0.1u 
mmp12 net7 net1 net5 VDD p12 M=1 W=0.6u L=0.1u 
mmp11 net3 IN2 VDD VDD p12 M=1 W=0.6u L=0.1u 
mmp10 net2 IN2 VDD VDD p12 M=1 W=0.32u L=0.1u 
mmp9 Q net7 VDD VDD p12 M=2 W=1.12u L=0.1u 
mmp8 net7 IN1 net3 VDD p12 M=1 W=0.6u L=0.1u 
mmn14 net7 net1 net6 VSS n12 M=1 W=0.21u L=0.1u 
mmn13 net2 IN2 VSS VSS n12 M=1 W=0.21u L=0.1u 
mmn12 net4 net2 VSS VSS n12 M=1 W=0.21u L=0.1u 
mmn11 net1 IN1 VSS VSS n12 M=1 W=0.21u L=0.1u 
mmn10 net7 IN1 net4 VSS n12 M=1 W=0.21u L=0.1u 
mmn9 net6 IN2 VSS VSS n12 M=1 W=0.21u L=0.1u 
mmn8 Q net7 VSS VSS n12 M=2 W=0.4u L=0.1u 
.ENDS

.SUBCKT XOR2X1 IN1 IN2 Q VDD VSS 
mmn7 Q net7 VSS VSS n12 M=1 W=0.4u L=0.1u 
mmn6 net6 IN2 VSS VSS n12 M=1 W=0.21u L=0.1u 
mmn5 net7 net1 net6 VSS n12 M=1 W=0.21u L=0.1u 
mmn4 net4 net2 VSS VSS n12 M=1 W=0.21u L=0.1u 
mmn1 net1 IN1 VSS VSS n12 M=1 W=0.21u L=0.1u 
mmn3 net7 IN1 net4 VSS n12 M=1 W=0.21u L=0.1u 
mmn2 net2 IN2 VSS VSS n12 M=1 W=0.21u L=0.1u 
mmp7 Q net7 VDD VDD p12 M=1 W=1.12u L=0.1u 
mmp6 net7 net1 net5 VDD p12 M=1 W=0.6u L=0.1u 
mmp5 net5 net2 VDD VDD p12 M=1 W=0.6u L=0.1u 
mmp4 net7 IN1 net3 VDD p12 M=1 W=0.6u L=0.1u 
mmp3 net3 IN2 VDD VDD p12 M=1 W=0.6u L=0.1u 
mmp1 net1 IN1 VDD VDD p12 M=1 W=0.32u L=0.1u 
mmp2 net2 IN2 VDD VDD p12 M=1 W=0.32u L=0.1u 
.ENDS

.SUBCKT XNOR3X2 IN1 IN2 IN3 Q VDD VSS 
mmn2 net2 IN2 VSS VSS n12 M=1 W=0.23u L=0.1u 
mmn6 net6 IN2 VSS VSS n12 M=1 W=0.23u L=0.1u 
mmn11 Q net11 VSS VSS n12 M=2 W=0.5u L=0.1u 
mmn10 net10 IN3 net11 VSS n12 M=1 W=0.14u L=0.1u 
mmn4 net4 net2 VSS VSS n12 M=1 W=0.23u L=0.1u 
mmn1 net1 IN1 VSS VSS n12 M=1 W=0.23u L=0.1u 
mmn7 net7 IN3 VSS VSS n12 M=1 W=0.21u L=0.1u 
mmn5 net8 IN1 net6 VSS n12 M=1 W=0.23u L=0.1u 
mmn8 net10 net8 VSS VSS n12 M=1 W=0.14u L=0.1u 
mmn3 net8 net1 net4 VSS n12 M=1 W=0.23u L=0.1u 
mmn9 net8 net7 net11 VSS n12 M=1 W=0.14u L=0.1u 
mmp1 net1 IN1 VDD VDD p12 M=1 W=0.42u L=0.1u 
mmp9 net8 IN3 net11 VDD p12 M=1 W=0.58u L=0.1u 
mmp11 Q net11 VDD VDD p12 M=2 W=1.12u L=0.1u 
mmp5 net5 net2 VDD VDD p12 M=1 W=0.64u L=0.1u 
mmp6 net8 IN1 net5 VDD p12 M=1 W=0.64u L=0.1u 
mmp4 net8 net1 net3 VDD p12 M=1 W=0.64u L=0.1u 
mmp7 net7 IN3 VDD VDD p12 M=1 W=0.35u L=0.1u 
mmp10 net10 net7 net11 VDD p12 M=1 W=0.58u L=0.1u 
mmp3 net3 IN2 VDD VDD p12 M=1 W=0.64u L=0.1u 
mmp8 net10 net8 VDD VDD p12 M=1 W=0.35u L=0.1u 
mmp2 net2 IN2 VDD VDD p12 M=1 W=0.42u L=0.1u 
.ENDS

.SUBCKT XNOR3X1 IN1 IN2 IN3 Q VDD VSS 
mmp2 net2 IN2 VDD VDD p12 M=1 W=0.42u L=0.1u 
mmp6 net8 IN1 net5 VDD p12 M=1 W=0.64u L=0.1u 
mmp11 Q net11 VDD VDD p12 M=1 W=1.12u L=0.1u 
mmp8 net10 net8 VDD VDD p12 M=1 W=0.42u L=0.1u 
mmp7 net7 IN3 VDD VDD p12 M=1 W=0.42u L=0.1u 
mmp4 net8 net1 net3 VDD p12 M=1 W=0.64u L=0.1u 
mmp10 net10 net7 net11 VDD p12 M=1 W=0.52u L=0.1u 
mmp5 net5 net2 VDD VDD p12 M=1 W=0.64u L=0.1u 
mmp1 net1 IN1 VDD VDD p12 M=1 W=0.42u L=0.1u 
mmp3 net3 IN2 VDD VDD p12 M=1 W=0.64u L=0.1u 
mmp9 net8 IN3 net11 VDD p12 M=1 W=0.52u L=0.1u 
mmn4 net4 net2 VSS VSS n12 M=1 W=0.23u L=0.1u 
mmn8 net10 net8 VSS VSS n12 M=1 W=0.14u L=0.1u 
mmn1 net1 IN1 VSS VSS n12 M=1 W=0.23u L=0.1u 
mmn6 net6 IN2 VSS VSS n12 M=1 W=0.23u L=0.1u 
mmn5 net8 IN1 net6 VSS n12 M=1 W=0.23u L=0.1u 
mmn2 net2 IN2 VSS VSS n12 M=1 W=0.23u L=0.1u 
mmn7 net7 IN3 VSS VSS n12 M=1 W=0.21u L=0.1u 
mmn11 Q net11 VSS VSS n12 M=1 W=0.44u L=0.1u 
mmn9 net8 net7 net11 VSS n12 M=1 W=0.14u L=0.1u 
mmn3 net8 net1 net4 VSS n12 M=1 W=0.23u L=0.1u 
mmn10 net10 IN3 net11 VSS n12 M=1 W=0.14u L=0.1u 
.ENDS

.SUBCKT XNOR2X2 IN1 IN2 Q VDD VSS 
mmn14 net1 IN1 VSS VSS n12 M=1 W=0.21u L=0.1u 
mmn13 Q net7 VSS VSS n12 M=2 W=0.42u L=0.1u 
mmn12 net7 net1 net4 VSS n12 M=1 W=0.21u L=0.1u 
mmn11 net7 IN1 net6 VSS n12 M=1 W=0.21u L=0.1u 
mmn10 net4 net2 VSS VSS n12 M=1 W=0.21u L=0.1u 
mmn9 net6 IN2 VSS VSS n12 M=1 W=0.21u L=0.1u 
mmn8 net2 IN2 VSS VSS n12 M=1 W=0.21u L=0.1u 
mmp14 Q net7 VDD VDD p12 M=2 W=1.12u L=0.1u 
mmp13 net3 IN2 VDD VDD p12 M=1 W=0.62u L=0.1u 
mmp12 net7 net1 net3 VDD p12 M=1 W=0.62u L=0.1u 
mmp11 net1 IN1 VDD VDD p12 M=1 W=0.32u L=0.1u 
mmp10 net7 IN1 net5 VDD p12 M=1 W=0.62u L=0.1u 
mmp9 net5 net2 VDD VDD p12 M=1 W=0.62u L=0.1u 
mmp8 net2 IN2 VDD VDD p12 M=1 W=0.32u L=0.1u 
.ENDS

.SUBCKT XNOR2X1 IN1 IN2 Q VDD VSS 
mmn2 net2 IN2 VSS VSS n12 M=1 W=0.21u L=0.1u 
mmn5 net7 IN1 net6 VSS n12 M=1 W=0.21u L=0.1u 
mmn6 net6 IN2 VSS VSS n12 M=1 W=0.21u L=0.1u 
mmn1 net1 IN1 VSS VSS n12 M=1 W=0.21u L=0.1u 
mmn7 Q net7 VSS VSS n12 M=1 W=0.42u L=0.1u 
mmn4 net4 net2 VSS VSS n12 M=1 W=0.21u L=0.1u 
mmn3 net7 net1 net4 VSS n12 M=1 W=0.21u L=0.1u 
mmp2 net2 IN2 VDD VDD p12 M=1 W=0.32u L=0.1u 
mmp7 Q net7 VDD VDD p12 M=1 W=1.12u L=0.1u 
mmp1 net1 IN1 VDD VDD p12 M=1 W=0.32u L=0.1u 
mmp6 net7 IN1 net5 VDD p12 M=1 W=0.6u L=0.1u 
mmp3 net3 IN2 VDD VDD p12 M=1 W=0.6u L=0.1u 
mmp5 net5 net2 VDD VDD p12 M=1 W=0.6u L=0.1u 
mmp4 net7 net1 net3 VDD p12 M=1 W=0.6u L=0.1u 
.ENDS

.SUBCKT XOR3X2_LVT 
M_ld_M24 NET8 IN1 NET5 VDD p12_lvt W=0.640u L=0.100u 
M_ld_M23 NET3 IN2 VDD VDD p12_lvt W=0.640u L=0.100u 
M_ld_M22 VDD NET2 NET5 VDD p12_lvt W=0.640u L=0.100u 
M_ld_M21 NET3 NET1 NET8 VDD p12_lvt W=0.640u L=0.100u 
M_ld_M20 Q NET11 VDD VDD p12_lvt W=1.120u L=0.100u 
M_ld_M19 VDD NET11 Q VDD p12_lvt W=1.120u L=0.100u 
M_MMP1 NET1 IN1 VDD VDD p12_lvt W=0.420u L=0.100u 
M_MMP8 NET9 NET8 VDD VDD p12_lvt W=0.350u L=0.100u 
M_MMP7 NET7 IN3 VDD VDD p12_lvt W=0.350u L=0.100u 
M_MMP2 NET2 IN2 VDD VDD p12_lvt W=0.420u L=0.100u 
M_MMP9 NET11 IN3 NET9 VDD p12_lvt W=0.580u L=0.100u 
M_MMP10 NET11 NET7 NET8 VDD p12_lvt W=0.580u L=0.100u 
M_MMN9 NET9 NET7 NET11 VSS n12_lvt W=0.140u L=0.100u 
M_MMN10 NET8 IN3 NET11 VSS n12_lvt W=0.140u L=0.100u 
M_ld_M10 NET8 IN1 NET6 VSS n12_lvt W=0.230u L=0.100u 
M_MMN1 VSS IN1 NET1 VSS n12_lvt W=0.230u L=0.100u 
M_ld_M8 VSS IN2 NET6 VSS n12_lvt W=0.230u L=0.100u 
M_ld_M7 NET4 NET2 VSS VSS n12_lvt W=0.230u L=0.100u 
M_ld_M6 NET4 NET1 NET8 VSS n12_lvt W=0.230u L=0.100u 
M_MMN8 VSS NET8 NET9 VSS n12_lvt W=0.140u L=0.100u 
M_ld_M4 Q NET11 VSS VSS n12_lvt W=0.490u L=0.100u 
M_ld_M3 VSS NET11 Q VSS n12_lvt W=0.490u L=0.100u 
M_MMN7 NET7 IN3 VSS VSS n12_lvt W=0.210u L=0.100u 
M_MMN2 NET2 IN2 VSS VSS n12_lvt W=0.230u L=0.100u 
.ENDS

.SUBCKT TNBUFFX8 ENB INP VDD VSS Z 
mmp4 net3 net1 net2 VDD p12 M=1 W=0.7u L=0.1u 
mmp3 net2 ENB VDD VDD p12 M=1 W=0.7u L=0.1u 
mmp1 net1 ENB VDD VDD p12 M=1 W=0.5u L=0.1u 
mmp5 Z net2 VDD VDD p12 M=8 W=1.12u L=0.1u 
mmp2 net2 INP VDD VDD p12 M=1 W=1.1u L=0.1u 
mmn1 net1 ENB VSS VSS n12 M=1 W=0.21u L=0.1u 
mmn4 net3 net1 VSS VSS n12 M=1 W=0.35u L=0.1u 
mmn2 net2 ENB net3 VSS n12 M=1 W=0.5u L=0.1u 
mmn5 Z net3 VSS VSS n12 M=8 W=0.52u L=0.1u 
mmn3 net3 INP VSS VSS n12 M=1 W=0.35u L=0.1u 
.ENDS

.SUBCKT TNBUFFX4 ENB INP VDD VSS Z 
mmp4 net3 net1 net2 VDD p12 M=1 W=0.7u L=0.1u 
mmp3 net2 ENB VDD VDD p12 M=1 W=0.7u L=0.1u 
mmp1 net1 ENB VDD VDD p12 M=1 W=0.5u L=0.1u 
mmp5 Z net2 VDD VDD p12 M=4 W=1.12u L=0.1u 
mmp2 net2 INP VDD VDD p12 M=1 W=1.1u L=0.1u 
mmn1 net1 ENB VSS VSS n12 M=1 W=0.21u L=0.1u 
mmn4 net3 net1 VSS VSS n12 M=1 W=0.35u L=0.1u 
mmn2 net2 ENB net3 VSS n12 M=1 W=0.5u L=0.1u 
mmn5 Z net3 VSS VSS n12 M=4 W=0.52u L=0.1u 
mmn3 net3 INP VSS VSS n12 M=1 W=0.35u L=0.1u 
.ENDS

.SUBCKT TNBUFFX32 ENB INP VDD VSS Z 
mmp4 net3 net1 net2 VDD p12 M=4 W=0.7u L=0.1u 
mmp3 net2 ENB VDD VDD p12 M=4 W=0.7u L=0.1u 
mmp1 net1 ENB VDD VDD p12 M=1 W=0.5u L=0.1u 
mmp5 Z net2 VDD VDD p12 M=32 W=1.12u L=0.1u 
mmp2 net2 INP VDD VDD p12 M=4 W=1.1u L=0.1u 
mmn1 net1 ENB VSS VSS n12 M=1 W=0.21u L=0.1u 
mmn4 net3 net1 VSS VSS n12 M=4 W=0.35u L=0.1u 
mmn2 net2 ENB net3 VSS n12 M=4 W=0.5u L=0.1u 
mmn5 Z net3 VSS VSS n12 M=32 W=0.52u L=0.1u 
mmn3 net3 INP VSS VSS n12 M=4 W=0.35u L=0.1u 
.ENDS

.SUBCKT TNBUFFX2 ENB INP VDD VSS Z 
mmp4 net3 net1 net2 VDD p12 M=1 W=0.49u L=0.1u 
mmp3 net2 ENB VDD VDD p12 M=1 W=0.49u L=0.1u 
mmp1 net1 ENB VDD VDD p12 M=1 W=0.5u L=0.1u 
mmp5 Z net2 VDD VDD p12 M=2 W=1.12u L=0.1u 
mmp2 net2 INP VDD VDD p12 M=1 W=0.77u L=0.1u 
mmn1 net1 ENB VSS VSS n12 M=1 W=0.21u L=0.1u 
mmn4 net3 net1 VSS VSS n12 M=1 W=0.25u L=0.1u 
mmn2 net2 ENB net3 VSS n12 M=1 W=0.35u L=0.1u 
mmn5 Z net3 VSS VSS n12 M=2 W=0.52u L=0.1u 
mmn3 net3 INP VSS VSS n12 M=1 W=0.25u L=0.1u 
.ENDS

.SUBCKT TNBUFFX1 ENB INP VDD VSS Z 
mmp4 net3 net1 net2 VDD p12 M=1 W=0.49u L=0.1u 
mmp3 net2 ENB VDD VDD p12 M=1 W=0.49u L=0.1u 
mmp1 net1 ENB VDD VDD p12 M=1 W=0.5u L=0.1u 
mmp5 Z net2 VDD VDD p12 M=1 W=1.12u L=0.1u 
mmp2 net2 INP VDD VDD p12 M=1 W=0.77u L=0.1u 
mmn1 net1 ENB VSS VSS n12 M=1 W=0.21u L=0.1u 
mmn4 net3 net1 VSS VSS n12 M=1 W=0.25u L=0.1u 
mmn2 net2 ENB net3 VSS n12 M=1 W=0.35u L=0.1u 
mmn5 Z net3 VSS VSS n12 M=1 W=0.52u L=0.1u 
mmn3 net3 INP VSS VSS n12 M=1 W=0.25u L=0.1u 
.ENDS

.SUBCKT TNBUFFX16 ENB INP VDD VSS Z 
mmp4 net3 net1 net2 VDD p12 M=2 W=0.7u L=0.1u 
mmp3 net2 ENB VDD VDD p12 M=2 W=0.7u L=0.1u 
mmp1 net1 ENB VDD VDD p12 M=1 W=0.5u L=0.1u 
mmp5 Z net2 VDD VDD p12 M=16 W=1.12u L=0.1u 
mmp2 net2 INP VDD VDD p12 M=2 W=1.1u L=0.1u 
mmn1 net1 ENB VSS VSS n12 M=1 W=0.21u L=0.1u 
mmn4 net3 net1 VSS VSS n12 M=2 W=0.35u L=0.1u 
mmn2 net2 ENB net3 VSS n12 M=2 W=0.5u L=0.1u 
mmn5 Z net3 VSS VSS n12 M=16 W=0.52u L=0.1u 
mmn3 net3 INP VSS VSS n12 M=2 W=0.35u L=0.1u 
.ENDS

.SUBCKT TIEL VDD VSS ZN 
mg_pmos4t1 ZN net1 VSS VSS n12 M=1 W=0.56u L=0.1u 
mg_nmos4t1 net1 net1 VDD VDD p12 M=1 W=1.12u L=0.1u 
.ENDS

.SUBCKT TIEH VDD VSS Z 
mg_nmos4t1 Z net1 VDD VDD p12 M=1 W=1.12u L=0.1u 
mg_pmos4t1 net1 net1 VSS VSS n12 M=1 W=0.56u L=0.1u 
.ENDS

.SUBCKT SHFILL64 VDD VSS 
.ENDS

.SUBCKT SHFILL3 VDD VSS 
.ENDS

.SUBCKT SHFILL2 VDD VSS 
.ENDS

.SUBCKT SHFILL1 VDD VSS 
.ENDS

.SUBCKT SHFILL128 VDD VSS 
.ENDS

.SUBCKT SDFFX2 CLK D Q QN SE SI VDD VSS 
mmp04 net04 net01 VDD VDD p12 M=1 W=0.33u L=0.1u 
mmp1 net1 CLKP net06 VDD p12 M=1 W=0.33u L=0.1u 
mmp012 CLKP CLKN VDD VDD p12 M=1 W=0.21u L=0.1u 
mmp7 net7 CLKN net2 VDD p12 M=1 W=0.56u L=0.1u 
mmp02 net02 SE VDD VDD p12 M=1 W=0.33u L=0.1u 
mmp13 Q net8 VDD VDD p12 M=1 W=2.24u L=0.1u 
mmp8 net8 net7 VDD VDD p12 M=1 W=0.35u L=0.1u 
mmp2 net2 net1 VDD VDD p12 M=1 W=0.33u L=0.1u 
mmp011 CLKN CLK VDD VDD p12 M=1 W=0.21u L=0.1u 
mmp14 QN net7 VDD VDD p12 M=1 W=2.2u L=0.1u 
mmp01 net01 SE VDD VDD p12 M=1 W=0.33u L=0.1u 
mmp4 net4 CLKN VDD VDD p12 M=1 W=0.33u L=0.1u 
mmp12 net7 net8 net10 VDD p12 M=1 W=0.21u L=0.1u 
mmp03 net06 D net02 VDD p12 M=1 W=0.33u L=0.1u 
mmp05 net06 SI net04 VDD p12 M=1 W=0.33u L=0.1u 
mmp10 net10 CLKP VDD VDD p12 M=1 W=0.21u L=0.1u 
mmp6 net1 net2 net4 VDD p12 M=1 W=0.33u L=0.1u 
mmn14 QN net7 VSS VSS n12 M=1 W=1.12u L=0.1u 
mmn13 Q net8 VSS VSS n12 M=1 W=1.12u L=0.1u 
mmn7 net7 CLKP net2 VSS n12 M=1 W=0.21u L=0.1u 
mmn4 net6 CLKP VSS VSS n12 M=1 W=0.21u L=0.1u 
mmn2 net2 net1 VSS VSS n12 M=1 W=0.21u L=0.1u 
mmn12 net7 net8 net12 VSS n12 M=1 W=0.21u L=0.1u 
mmn6 net1 net2 net6 VSS n12 M=1 W=0.21u L=0.1u 
mmn011 CLKN CLK VSS VSS n12 M=1 W=0.21u L=0.1u 
mmn01 net01 SE VSS VSS n12 M=1 W=0.21u L=0.1u 
mmn03 net03 net01 VSS VSS n12 M=1 W=0.21u L=0.1u 
mmn04 net06 SI net05 VSS n12 M=1 W=0.21u L=0.1u 
mmn012 CLKP CLKN VSS VSS n12 M=1 W=0.21u L=0.1u 
mmn1 net1 CLKN net06 VSS n12 M=1 W=0.21u L=0.1u 
mmn05 net05 SE VSS VSS n12 M=1 W=0.21u L=0.1u 
mmn02 net06 D net03 VSS n12 M=1 W=0.21u L=0.1u 
mmn8 net8 net7 VSS VSS n12 M=1 W=0.21u L=0.1u 
mmn10 net12 CLKN VSS VSS n12 M=1 W=0.21u L=0.1u 
.ENDS

.SUBCKT SDFFX1 CLK D Q QN SE SI VDD VSS 
mmp04 net04 net01 VDD VDD p12 M=1 W=0.33u L=0.1u 
mmp1 net1 CLKP net06 VDD p12 M=1 W=0.33u L=0.1u 
mmp012 CLKP CLKN VDD VDD p12 M=1 W=0.21u L=0.1u 
mmp7 net7 CLKN net2 VDD p12 M=1 W=0.45u L=0.1u 
mmp02 net02 SE VDD VDD p12 M=1 W=0.33u L=0.1u 
mmp13 Q net8 VDD VDD p12 M=1 W=1.12u L=0.1u 
mmp8 net8 net7 VDD VDD p12 M=1 W=0.4u L=0.1u 
mmp2 net2 net1 VDD VDD p12 M=1 W=0.33u L=0.1u 
mmp011 CLKN CLK VDD VDD p12 M=1 W=0.21u L=0.1u 
mmp14 QN net7 VDD VDD p12 M=1 W=1.12u L=0.1u 
mmp01 net01 SE VDD VDD p12 M=1 W=0.33u L=0.1u 
mmp4 net4 CLKN VDD VDD p12 M=1 W=0.33u L=0.1u 
mmp12 net7 net8 net10 VDD p12 M=1 W=0.21u L=0.1u 
mmp03 net06 D net02 VDD p12 M=1 W=0.33u L=0.1u 
mmp05 net06 SI net04 VDD p12 M=1 W=0.33u L=0.1u 
mmp10 net10 CLKP VDD VDD p12 M=1 W=0.21u L=0.1u 
mmp6 net1 net2 net4 VDD p12 M=1 W=0.33u L=0.1u 
mmn14 QN net7 VSS VSS n12 M=1 W=0.56u L=0.1u 
mmn13 Q net8 VSS VSS n12 M=1 W=0.49u L=0.1u 
mmn7 net7 CLKP net2 VSS n12 M=1 W=0.21u L=0.1u 
mmn4 net6 CLKP VSS VSS n12 M=1 W=0.21u L=0.1u 
mmn2 net2 net1 VSS VSS n12 M=1 W=0.21u L=0.1u 
mmn12 net7 net8 net12 VSS n12 M=1 W=0.21u L=0.1u 
mmn6 net1 net2 net6 VSS n12 M=1 W=0.21u L=0.1u 
mmn011 CLKN CLK VSS VSS n12 M=1 W=0.21u L=0.1u 
mmn01 net01 SE VSS VSS n12 M=1 W=0.21u L=0.1u 
mmn03 net03 net01 VSS VSS n12 M=1 W=0.21u L=0.1u 
mmn04 net06 SI net05 VSS n12 M=1 W=0.21u L=0.1u 
mmn012 CLKP CLKN VSS VSS n12 M=1 W=0.21u L=0.1u 
mmn1 net1 CLKN net06 VSS n12 M=1 W=0.21u L=0.1u 
mmn05 net05 SE VSS VSS n12 M=1 W=0.21u L=0.1u 
mmn02 net06 D net03 VSS n12 M=1 W=0.21u L=0.1u 
mmn8 net8 net7 VSS VSS n12 M=1 W=0.21u L=0.1u 
mmn10 net12 CLKN VSS VSS n12 M=1 W=0.21u L=0.1u 
.ENDS

.SUBCKT SDFFSSRX2 CLK D Q QN RSTB SE SETB SI VDD VSS 
mmn012 CLKP CLKN VSS VSS n12 M=1 W=0.21u L=0.1u 
mmn01 SET SETB VSS VSS n12 M=1 W=0.21u L=0.1u 
mmn13 Q net8 VSS VSS n12 M=1 W=1u L=0.1u 
mmn2 net2 net1 VSS VSS n12 M=1 W=0.21u L=0.1u 
mmn08 net06 SE net04 VSS n12 M=1 W=0.21u L=0.1u 
mmn1 net1 CLKN net06 VSS n12 M=1 W=0.21u L=0.1u 
mmn011 CLKN CLK VSS VSS n12 M=1 W=0.21u L=0.1u 
mmn7 IQN CLKP net2 VSS n12 M=1 W=0.21u L=0.1u 
mmn07 net05 SE VSS VSS n12 M=1 W=0.21u L=0.1u 
mmn10 net12 CLKN VSS VSS n12 M=1 W=0.21u L=0.1u 
mmn8 net8 IQN VSS VSS n12 M=1 W=0.35u L=0.1u 
mmn12 IQN net8 net12 VSS n12 M=1 W=0.21u L=0.1u 
mmn4 net6 CLKP VSS VSS n12 M=1 W=0.21u L=0.1u 
mmn6 net1 net2 net6 VSS n12 M=1 W=0.21u L=0.1u 
mmn14 QN IQN VSS VSS n12 M=1 W=1.12u L=0.1u 
mmn06 net06 net05 net02 VSS n12 M=1 W=0.21u L=0.1u 
mmn02 net02 SET net03 VSS n12 M=1 W=0.21u L=0.1u 
mmn04 net03 RSTB VSS VSS n12 M=1 W=0.21u L=0.1u 
mmn03 net02 D net03 VSS n12 M=1 W=0.21u L=0.1u 
mmn05 net04 SI VSS VSS n12 M=1 W=0.21u L=0.1u 
mmp012 CLKP CLKN VDD VDD p12 M=1 W=0.21u L=0.1u 
mmp011 CLKN CLK VDD VDD p12 M=1 W=0.21u L=0.1u 
mmp13 Q net8 VDD VDD p12 M=1 W=2.24u L=0.1u 
mmp01 SET SETB VDD VDD p12 M=1 W=0.33u L=0.1u 
mmp08 net06 net05 net04 VDD p12 M=1 W=0.33u L=0.1u 
mmp1 net1 CLKP net06 VDD p12 M=1 W=0.33u L=0.1u 
mmp7 IQN CLKN net2 VDD p12 M=1 W=0.45u L=0.1u 
mmp2 net2 net1 VDD VDD p12 M=1 W=0.33u L=0.1u 
mmp8 net8 IQN VDD VDD p12 M=1 W=0.65u L=0.1u 
mmp07 net05 SE VDD VDD p12 M=1 W=0.33u L=0.1u 
mmp10 net10 CLKP VDD VDD p12 M=1 W=0.21u L=0.1u 
mmp4 net4 CLKN VDD VDD p12 M=1 W=0.33u L=0.1u 
mmp6 net1 net2 net4 VDD p12 M=1 W=0.33u L=0.1u 
mmp12 IQN net8 net10 VDD p12 M=1 W=0.21u L=0.1u 
mmp14 QN IQN VDD VDD p12 M=1 W=2.24u L=0.1u 
mmp06 net06 SE net02 VDD p12 M=1 W=0.33u L=0.1u 
mmp04 net02 RSTB net01 VDD p12 M=1 W=0.33u L=0.1u 
mmp02 net01 SET VDD VDD p12 M=1 W=0.33u L=0.1u 
mmp03 net02 D net01 VDD p12 M=1 W=0.33u L=0.1u 
mmp05 net04 SI VDD VDD p12 M=1 W=0.33u L=0.1u 
.ENDS

.SUBCKT SDFFSSRX1 CLK D Q QN RSTB SE SETB SI VDD VSS 
mmn012 CLKP CLKN VSS VSS n12 M=1 W=0.21u L=0.1u 
mmn01 SET SETB VSS VSS n12 M=1 W=0.21u L=0.1u 
mmn13 Q net8 VSS VSS n12 M=1 W=0.5u L=0.1u 
mmn2 net2 net1 VSS VSS n12 M=1 W=0.21u L=0.1u 
mmn08 net06 SE net04 VSS n12 M=1 W=0.21u L=0.1u 
mmn1 net1 CLKN net06 VSS n12 M=1 W=0.21u L=0.1u 
mmn011 CLKN CLK VSS VSS n12 M=1 W=0.21u L=0.1u 
mmn7 IQN CLKP net2 VSS n12 M=1 W=0.21u L=0.1u 
mmn07 net05 SE VSS VSS n12 M=1 W=0.21u L=0.1u 
mmn10 net12 CLKN VSS VSS n12 M=1 W=0.21u L=0.1u 
mmn8 net8 IQN VSS VSS n12 M=1 W=0.35u L=0.1u 
mmn12 IQN net8 net12 VSS n12 M=1 W=0.21u L=0.1u 
mmn4 net6 CLKP VSS VSS n12 M=1 W=0.21u L=0.1u 
mmn6 net1 net2 net6 VSS n12 M=1 W=0.21u L=0.1u 
mmn14 QN IQN VSS VSS n12 M=1 W=0.56u L=0.1u 
mmn06 net06 net05 net02 VSS n12 M=1 W=0.21u L=0.1u 
mmn02 net02 SET net03 VSS n12 M=1 W=0.21u L=0.1u 
mmn04 net03 RSTB VSS VSS n12 M=1 W=0.21u L=0.1u 
mmn03 net02 D net03 VSS n12 M=1 W=0.21u L=0.1u 
mmn05 net04 SI VSS VSS n12 M=1 W=0.21u L=0.1u 
mmp012 CLKP CLKN VDD VDD p12 M=1 W=0.21u L=0.1u 
mmp011 CLKN CLK VDD VDD p12 M=1 W=0.21u L=0.1u 
mmp13 Q net8 VDD VDD p12 M=1 W=1.12u L=0.1u 
mmp01 SET SETB VDD VDD p12 M=1 W=0.33u L=0.1u 
mmp08 net06 net05 net04 VDD p12 M=1 W=0.33u L=0.1u 
mmp1 net1 CLKP net06 VDD p12 M=1 W=0.33u L=0.1u 
mmp7 IQN CLKN net2 VDD p12 M=1 W=0.45u L=0.1u 
mmp2 net2 net1 VDD VDD p12 M=1 W=0.33u L=0.1u 
mmp8 net8 IQN VDD VDD p12 M=1 W=0.65u L=0.1u 
mmp07 net05 SE VDD VDD p12 M=1 W=0.33u L=0.1u 
mmp10 net10 CLKP VDD VDD p12 M=1 W=0.21u L=0.1u 
mmp4 net4 CLKN VDD VDD p12 M=1 W=0.33u L=0.1u 
mmp6 net1 net2 net4 VDD p12 M=1 W=0.33u L=0.1u 
mmp12 IQN net8 net10 VDD p12 M=1 W=0.21u L=0.1u 
mmp14 QN IQN VDD VDD p12 M=1 W=1.12u L=0.1u 
mmp06 net06 SE net02 VDD p12 M=1 W=0.33u L=0.1u 
mmp04 net02 RSTB net01 VDD p12 M=1 W=0.33u L=0.1u 
mmp02 net01 SET VDD VDD p12 M=1 W=0.33u L=0.1u 
mmp03 net02 D net01 VDD p12 M=1 W=0.33u L=0.1u 
mmp05 net04 SI VDD VDD p12 M=1 W=0.33u L=0.1u 
.ENDS

.SUBCKT SDFFNX2 CLK D Q QN SE SI VDD VSS 
mmp04 net04 net01 VDD VDD p12 M=1 W=0.6u L=0.1u 
mmp1 net1 CLKN net06 VDD p12 M=1 W=0.6u L=0.1u 
mmp012 CLKP CLKN VDD VDD p12 M=1 W=0.21u L=0.1u 
mmp7 net7 CLKP net2 VDD p12 M=1 W=0.6u L=0.1u 
mmp02 net02 SE VDD VDD p12 M=1 W=0.6u L=0.1u 
mmp14 QN net7 VDD VDD p12 M=1 W=2.24u L=0.1u 
mmp8 net8 net7 VDD VDD p12 M=1 W=0.6u L=0.1u 
mmp2 net2 net1 VDD VDD p12 M=1 W=0.6u L=0.1u 
mmp011 CLKN CLK VDD VDD p12 M=1 W=0.21u L=0.1u 
mmp13 Q net8 VDD VDD p12 M=1 W=2.24u L=0.1u 
mmp01 net01 SE VDD VDD p12 M=1 W=0.6u L=0.1u 
mmp4 net4 CLKP VDD VDD p12 M=1 W=0.6u L=0.1u 
mmp12 net7 net8 net10 VDD p12 M=1 W=0.6u L=0.1u 
mmp03 net06 D net02 VDD p12 M=1 W=0.6u L=0.1u 
mmp05 net06 SI net04 VDD p12 M=1 W=0.6u L=0.1u 
mmp10 net10 CLKN VDD VDD p12 M=1 W=0.6u L=0.1u 
mmp6 net1 net2 net4 VDD p12 M=1 W=0.6u L=0.1u 
mmn13 Q net8 VSS VSS n12 M=1 W=0.8u L=0.1u 
mmn14 QN net7 VSS VSS n12 M=1 W=0.9u L=0.1u 
mmn7 net7 CLKN net2 VSS n12 M=1 W=0.21u L=0.1u 
mmn4 net6 CLKN VSS VSS n12 M=1 W=0.21u L=0.1u 
mmn2 net2 net1 VSS VSS n12 M=1 W=0.21u L=0.1u 
mmn12 net7 net8 net12 VSS n12 M=1 W=0.21u L=0.1u 
mmn6 net1 net2 net6 VSS n12 M=1 W=0.21u L=0.1u 
mmn011 CLKN CLK VSS VSS n12 M=1 W=0.21u L=0.1u 
mmn01 net01 SE VSS VSS n12 M=1 W=0.21u L=0.1u 
mmn03 net03 net01 VSS VSS n12 M=1 W=0.21u L=0.1u 
mmn04 net06 SI net05 VSS n12 M=1 W=0.21u L=0.1u 
mmn012 CLKP CLKN VSS VSS n12 M=1 W=0.21u L=0.1u 
mmn1 net1 CLKP net06 VSS n12 M=1 W=0.21u L=0.1u 
mmn05 net05 SE VSS VSS n12 M=1 W=0.21u L=0.1u 
mmn02 net06 D net03 VSS n12 M=1 W=0.21u L=0.1u 
mmn8 net8 net7 VSS VSS n12 M=1 W=0.21u L=0.1u 
mmn10 net12 CLKP VSS VSS n12 M=1 W=0.21u L=0.1u 
.ENDS

.SUBCKT SDFFNX1 CLK D Q QN SE SI VDD VSS 
mmp04 net04 net01 VDD VDD p12 M=1 W=0.33u L=0.1u 
mmp1 net1 CLKN net06 VDD p12 M=1 W=0.5u L=0.1u 
mmp012 CLKP CLKN VDD VDD p12 M=1 W=0.21u L=0.1u 
mmp7 net7 CLKP net2 VDD p12 M=1 W=0.5u L=0.1u 
mmp02 net02 SE VDD VDD p12 M=1 W=0.33u L=0.1u 
mmp14 QN net7 VDD VDD p12 M=1 W=1u L=0.1u 
mmp8 net8 net7 VDD VDD p12 M=1 W=0.33u L=0.1u 
mmp2 net2 net1 VDD VDD p12 M=1 W=0.5u L=0.1u 
mmp011 CLKN CLK VDD VDD p12 M=1 W=0.21u L=0.1u 
mmp13 Q net8 VDD VDD p12 M=1 W=1u L=0.1u 
mmp01 net01 SE VDD VDD p12 M=1 W=0.33u L=0.1u 
mmp4 net4 CLKP VDD VDD p12 M=1 W=0.4u L=0.1u 
mmp12 net7 net8 net10 VDD p12 M=1 W=0.33u L=0.1u 
mmp03 net06 D net02 VDD p12 M=1 W=0.33u L=0.1u 
mmp05 net06 SI net04 VDD p12 M=1 W=0.33u L=0.1u 
mmp10 net10 CLKN VDD VDD p12 M=1 W=0.33u L=0.1u 
mmp6 net1 net2 net4 VDD p12 M=1 W=0.4u L=0.1u 
mmn13 Q net8 VSS VSS n12 M=1 W=0.4u L=0.1u 
mmn14 QN net7 VSS VSS n12 M=1 W=0.56u L=0.1u 
mmn7 net7 CLKN net2 VSS n12 M=1 W=0.21u L=0.1u 
mmn4 net6 CLKN VSS VSS n12 M=1 W=0.21u L=0.1u 
mmn2 net2 net1 VSS VSS n12 M=1 W=0.21u L=0.1u 
mmn12 net7 net8 net12 VSS n12 M=1 W=0.21u L=0.1u 
mmn6 net1 net2 net6 VSS n12 M=1 W=0.21u L=0.1u 
mmn011 CLKN CLK VSS VSS n12 M=1 W=0.21u L=0.1u 
mmn01 net01 SE VSS VSS n12 M=1 W=0.21u L=0.1u 
mmn03 net03 net01 VSS VSS n12 M=1 W=0.21u L=0.1u 
mmn04 net06 SI net05 VSS n12 M=1 W=0.21u L=0.1u 
mmn012 CLKP CLKN VSS VSS n12 M=1 W=0.21u L=0.1u 
mmn1 net1 CLKP net06 VSS n12 M=1 W=0.21u L=0.1u 
mmn05 net05 SE VSS VSS n12 M=1 W=0.21u L=0.1u 
mmn02 net06 D net03 VSS n12 M=1 W=0.21u L=0.1u 
mmn8 net8 net7 VSS VSS n12 M=1 W=0.21u L=0.1u 
mmn10 net12 CLKP VSS VSS n12 M=1 W=0.21u L=0.1u 
.ENDS

.SUBCKT SDFFNASX2 CLK D Q QN SE SETB SI VDD VSS 
mmn13 Q net8 VSS VSS n12 M=1 W=1.12u L=0.1u 
mmn12 net7 net8 net11 VSS n12 M=1 W=0.21u L=0.1u 
mmn14 QN net7 VSS VSS n12 M=1 W=0.5u L=0.1u 
mmn05 net05 SE VSS VSS n12 M=1 W=0.21u L=0.1u 
mmn01 net01 SE VSS VSS n12 M=1 W=0.21u L=0.1u 
mmn8 net8 net7 VSS VSS n12 M=1 W=0.21u L=0.1u 
mmn03 net03 net01 VSS VSS n12 M=1 W=0.21u L=0.1u 
mmn11 net11 SETB net12 VSS n12 M=1 W=0.605u L=0.1u 
mmn4 net6 CLKN VSS VSS n12 M=1 W=0.21u L=0.1u 
mmn1 net1 CLKP net06 VSS n12 M=1 W=0.21u L=0.1u 
mmn2 net3 net1 VSS VSS n12 M=1 W=0.21u L=0.1u 
mmn011 CLKN CLK VSS VSS n12 M=1 W=0.21u L=0.1u 
mmn012 CLKP CLKN VSS VSS n12 M=1 W=0.21u L=0.1u 
mmn6 net1 net2 net6 VSS n12 M=1 W=0.21u L=0.1u 
mmn10 net12 CLKP VSS VSS n12 M=1 W=0.21u L=0.1u 
mmn02 net06 D net03 VSS n12 M=1 W=0.21u L=0.1u 
mmn7 net7 CLKN net2 VSS n12 M=1 W=0.21u L=0.1u 
mmn3 net2 SETB net3 VSS n12 M=1 W=0.21u L=0.1u 
mmn04 net06 SI net05 VSS n12 M=1 W=0.21u L=0.1u 
mmp4 net4 CLKP VDD VDD p12 M=1 W=0.65u L=0.1u 
mmp1 net1 CLKN net06 VDD p12 M=1 W=0.59u L=0.1u 
mmp011 CLKN CLK VDD VDD p12 M=1 W=0.21u L=0.1u 
mmp13 Q net8 VDD VDD p12 M=1 W=1.3u L=0.1u 
mmp7 net7 CLKP net2 VDD p12 M=1 W=0.59u L=0.1u 
mmp05 net06 SI net04 VDD p12 M=1 W=0.65u L=0.1u 
mmp01 net01 SE VDD VDD p12 M=1 W=0.65u L=0.1u 
mmp14 QN net7 VDD VDD p12 M=1 W=2.24u L=0.1u 
mmp11 net7 SETB net10 VDD p12 M=1 W=0.65u L=0.1u 
mmp3 net2 SETB VDD VDD p12 M=1 W=0.65u L=0.1u 
mmp04 net04 net01 VDD VDD p12 M=1 W=0.65u L=0.1u 
mmp03 net06 D net02 VDD p12 M=1 W=0.65u L=0.1u 
mmp8 net8 net7 VDD VDD p12 M=1 W=0.65u L=0.1u 
mmp10 net10 CLKN VDD VDD p12 M=1 W=0.65u L=0.1u 
mmp012 CLKP CLKN VDD VDD p12 M=1 W=0.21u L=0.1u 
mmp12 net7 net8 net10 VDD p12 M=1 W=0.65u L=0.1u 
mmp6 net1 net2 net4 VDD p12 M=1 W=0.65u L=0.1u 
mmp2 net2 net1 VDD VDD p12 M=1 W=0.61u L=0.1u 
mmp02 net02 SE VDD VDD p12 M=1 W=0.65u L=0.1u 
.ENDS

.SUBCKT SDFFNASX1 CLK D Q QN SE SETB SI VDD VSS 
mmn13 Q net8 VSS VSS n12 M=1 W=0.4u L=0.1u 
mmn12 net7 net8 net11 VSS n12 M=1 W=0.21u L=0.1u 
mmn14 QN net7 VSS VSS n12 M=1 W=0.4u L=0.1u 
mmn05 net05 SE VSS VSS n12 M=1 W=0.21u L=0.1u 
mmn01 net01 SE VSS VSS n12 M=1 W=0.21u L=0.1u 
mmn8 net8 net7 VSS VSS n12 M=1 W=0.21u L=0.1u 
mmn03 net03 net01 VSS VSS n12 M=1 W=0.21u L=0.1u 
mmn11 net11 SETB net12 VSS n12 M=1 W=0.21u L=0.1u 
mmn4 net6 CLKN VSS VSS n12 M=1 W=0.21u L=0.1u 
mmn1 net1 CLKP net06 VSS n12 M=1 W=0.21u L=0.1u 
mmn2 net3 net1 VSS VSS n12 M=1 W=0.21u L=0.1u 
mmn011 CLKN CLK VSS VSS n12 M=1 W=0.21u L=0.1u 
mmn012 CLKP CLKN VSS VSS n12 M=1 W=0.21u L=0.1u 
mmn6 net1 net2 net6 VSS n12 M=1 W=0.21u L=0.1u 
mmn10 net12 CLKP VSS VSS n12 M=1 W=0.21u L=0.1u 
mmn02 net06 D net03 VSS n12 M=1 W=0.21u L=0.1u 
mmn7 net7 CLKN net2 VSS n12 M=1 W=0.21u L=0.1u 
mmn3 net2 SETB net3 VSS n12 M=1 W=0.21u L=0.1u 
mmn04 net06 SI net05 VSS n12 M=1 W=0.21u L=0.1u 
mmp4 net4 CLKP VDD VDD p12 M=1 W=0.33u L=0.1u 
mmp1 net1 CLKN net06 VDD p12 M=1 W=0.33u L=0.1u 
mmp011 CLKN CLK VDD VDD p12 M=1 W=0.21u L=0.1u 
mmp13 Q net8 VDD VDD p12 M=1 W=1.12u L=0.1u 
mmp7 net7 CLKP net2 VDD p12 M=1 W=0.5u L=0.1u 
mmp05 net06 SI net04 VDD p12 M=1 W=0.33u L=0.1u 
mmp01 net01 SE VDD VDD p12 M=1 W=0.33u L=0.1u 
mmp14 QN net7 VDD VDD p12 M=1 W=1.12u L=0.1u 
mmp11 net7 SETB net10 VDD p12 M=1 W=0.6u L=0.1u 
mmp3 net2 SETB VDD VDD p12 M=1 W=0.6u L=0.1u 
mmp04 net04 net01 VDD VDD p12 M=1 W=0.33u L=0.1u 
mmp03 net06 D net02 VDD p12 M=1 W=0.33u L=0.1u 
mmp8 net8 net7 VDD VDD p12 M=1 W=0.45u L=0.1u 
mmp10 net10 CLKN VDD VDD p12 M=1 W=0.6u L=0.1u 
mmp012 CLKP CLKN VDD VDD p12 M=1 W=0.21u L=0.1u 
mmp12 net7 net8 net10 VDD p12 M=1 W=0.6u L=0.1u 
mmp6 net1 net2 net4 VDD p12 M=1 W=0.33u L=0.1u 
mmp2 net2 net1 VDD VDD p12 M=1 W=0.6u L=0.1u 
mmp02 net02 SE VDD VDD p12 M=1 W=0.33u L=0.1u 
.ENDS

.SUBCKT SDFFNASRX2 CLK D Q QN RSTB SE SETB SI VDD VSS 
mmn1 net1 CLKP net06 VSS n12 M=1 W=0.25u L=0.1u 
mmn012 CLKP CLKN VSS VSS n12 M=1 W=0.21u L=0.1u 
mmn11 net11 SETB net12 VSS n12 M=1 W=0.21u L=0.1u 
mmn10 net12 CLKP VSS VSS n12 M=1 W=0.21u L=0.1u 
mmn13 Q net8 VSS VSS n12 M=1 W=0.8u L=0.1u 
mmn2 net3 net1 VSS VSS n12 M=1 W=0.21u L=0.1u 
mmn3 net2 SETB net3 VSS n12 M=1 W=0.21u L=0.1u 
mmn8 net9 net7 VSS VSS n12 M=1 W=0.21u L=0.1u 
mmn011 CLKN CLK VSS VSS n12 M=1 W=0.21u L=0.1u 
mmn9 net8 RSTB net9 VSS n12 M=1 W=0.21u L=0.1u 
mmn12 net7 net8 net11 VSS n12 M=1 W=0.21u L=0.1u 
mmn7 net7 CLKN net2 VSS n12 M=1 W=0.21u L=0.1u 
mmn4 net6 CLKN VSS VSS n12 M=1 W=0.21u L=0.1u 
mmn5 net5 RSTB net6 VSS n12 M=1 W=0.21u L=0.1u 
mmn6 net1 net2 net5 VSS n12 M=1 W=0.21u L=0.1u 
mmn14 QN net7 VSS VSS n12 M=1 W=0.44u L=0.1u 
mmn04 net06 SI net05 VSS n12 M=1 W=0.21u L=0.1u 
mmn05 net05 SE VSS VSS n12 M=1 W=0.21u L=0.1u 
mmn03 net03 net01 VSS VSS n12 M=1 W=0.21u L=0.1u 
mmn02 net06 D net03 VSS n12 M=1 W=0.21u L=0.1u 
mmn01 net01 SE VSS VSS n12 M=1 W=0.21u L=0.1u 
mmp1 net1 CLKN net06 VDD p12 M=1 W=0.62u L=0.1u 
mmp012 CLKP CLKN VDD VDD p12 M=1 W=0.21u L=0.1u 
mmp011 CLKN CLK VDD VDD p12 M=1 W=0.21u L=0.1u 
mmp12 net7 net8 net10 VDD p12 M=1 W=0.6u L=0.1u 
mmp13 Q net8 VDD VDD p12 M=1 W=2.24u L=0.1u 
mmp8 net8 net7 VDD VDD p12 M=1 W=0.65u L=0.1u 
mmp11 net7 SETB net10 VDD p12 M=1 W=0.6u L=0.1u 
mmp9 net8 RSTB VDD VDD p12 M=1 W=0.65u L=0.1u 
mmp3 net2 SETB VDD VDD p12 M=1 W=0.6u L=0.1u 
mmp2 net2 net1 VDD VDD p12 M=1 W=0.6u L=0.1u 
mmp10 net10 CLKN VDD VDD p12 M=1 W=0.5u L=0.1u 
mmp7 net7 CLKP net2 VDD p12 M=1 W=0.6u L=0.1u 
mmp4 net4 CLKP VDD VDD p12 M=1 W=0.65u L=0.1u 
mmp6 net1 net2 net4 VDD p12 M=1 W=0.65u L=0.1u 
mmp5 net1 RSTB net4 VDD p12 M=1 W=0.65u L=0.1u 
mmp14 QN net7 VDD VDD p12 M=1 W=2.24u L=0.1u 
mmp04 net04 net01 VDD VDD p12 M=1 W=0.8u L=0.1u 
mmp05 net06 SI net04 VDD p12 M=1 W=0.8u L=0.1u 
mmp02 net02 SE VDD VDD p12 M=1 W=0.8u L=0.1u 
mmp03 net06 D net02 VDD p12 M=1 W=0.8u L=0.1u 
mmp01 net01 SE VDD VDD p12 M=1 W=0.8u L=0.1u 
.ENDS

.SUBCKT SDFFNASRX1 CLK D Q QN RSTB SE SETB SI VDD VSS 
mmn1 net1 CLKP net06 VSS n12 M=1 W=0.21u L=0.1u 
mmn012 CLKP CLKN VSS VSS n12 M=1 W=0.21u L=0.1u 
mmn11 net11 SETB net12 VSS n12 M=1 W=0.21u L=0.1u 
mmn10 net12 CLKP VSS VSS n12 M=1 W=0.21u L=0.1u 
mmn13 Q net8 VSS VSS n12 M=1 W=0.52u L=0.1u 
mmn2 net3 net1 VSS VSS n12 M=1 W=0.21u L=0.1u 
mmn3 net2 SETB net3 VSS n12 M=1 W=0.21u L=0.1u 
mmn8 net9 net7 VSS VSS n12 M=1 W=0.21u L=0.1u 
mmn011 CLKN CLK VSS VSS n12 M=1 W=0.21u L=0.1u 
mmn9 net8 RSTB net9 VSS n12 M=1 W=0.21u L=0.1u 
mmn12 net7 net8 net11 VSS n12 M=1 W=0.21u L=0.1u 
mmn7 net7 CLKN net2 VSS n12 M=1 W=0.21u L=0.1u 
mmn4 net6 CLKN VSS VSS n12 M=1 W=0.21u L=0.1u 
mmn5 net5 RSTB net6 VSS n12 M=1 W=0.21u L=0.1u 
mmn6 net1 net2 net5 VSS n12 M=1 W=0.21u L=0.1u 
mmn14 QN net7 VSS VSS n12 M=1 W=0.56u L=0.1u 
mmn04 net06 SI net05 VSS n12 M=1 W=0.21u L=0.1u 
mmn05 net05 SE VSS VSS n12 M=1 W=0.21u L=0.1u 
mmn03 net03 net01 VSS VSS n12 M=1 W=0.21u L=0.1u 
mmn02 net06 D net03 VSS n12 M=1 W=0.21u L=0.1u 
mmn01 net01 SE VSS VSS n12 M=1 W=0.21u L=0.1u 
mmp1 net1 CLKN net06 VDD p12 M=1 W=0.33u L=0.1u 
mmp012 CLKP CLKN VDD VDD p12 M=1 W=0.21u L=0.1u 
mmp011 CLKN CLK VDD VDD p12 M=1 W=0.21u L=0.1u 
mmp12 net7 net8 net10 VDD p12 M=1 W=0.33u L=0.1u 
mmp13 Q net8 VDD VDD p12 M=1 W=1.12u L=0.1u 
mmp8 net8 net7 VDD VDD p12 M=1 W=0.3u L=0.1u 
mmp11 net7 SETB net10 VDD p12 M=1 W=0.33u L=0.1u 
mmp9 net8 RSTB VDD VDD p12 M=1 W=0.3u L=0.1u 
mmp3 net2 SETB VDD VDD p12 M=1 W=0.33u L=0.1u 
mmp2 net2 net1 VDD VDD p12 M=1 W=0.33u L=0.1u 