*SPEF "IEEE 1481-1999"
*DESIGN "filtro_pipelining"
*DATE "Fri May 13 14:04:37 2011"
*VENDOR "Synopsys, Inc."
*PROGRAM "icc_shell"
*VERSION "E-2010.12-ICC-SP1"
*DESIGN_FLOW "SYNTHESIS"
*DIVIDER /
*DELIMITER :
*BUS_DELIMITER []
*T_UNIT 1.0 NS
*C_UNIT 0.0010 PF
*R_UNIT 1000.0 KOHM
*L_UNIT 1.0 HENRY

*PORTS

filtro_pipelining_in\[1\] I *L 0.000e+00 *S 8.959e-04 7.085e-04 *D INVX8 
filtro_pipelining_in\[0\] I *L 0.000e+00 *S 8.959e-04 7.085e-04 *D INVX8 
VDD B *L 0.000e+00 *S 0.000e+00 0.000e+00 
VSS B *L 0.000e+00 *S 0.000e+00 0.000e+00 
filtro_pipelining_in\[9\] I *L 0.000e+00 *S 8.959e-04 7.085e-04 *D INVX8 
filtro_pipelining_in\[8\] I *L 0.000e+00 *S 8.959e-04 7.085e-04 *D INVX8 
filtro_pipelining_in\[7\] I *L 0.000e+00 *S 8.959e-04 7.085e-04 *D INVX8 
filtro_pipelining_in\[6\] I *L 0.000e+00 *S 8.959e-04 7.085e-04 *D INVX8 
filtro_pipelining_in\[5\] I *L 0.000e+00 *S 8.959e-04 7.085e-04 *D INVX8 
filtro_pipelining_in\[4\] I *L 0.000e+00 *S 8.959e-04 7.085e-04 *D INVX8 
filtro_pipelining_in\[3\] I *L 0.000e+00 *S 8.959e-04 7.085e-04 *D INVX8 
filtro_pipelining_in\[2\] I *L 0.000e+00 *S 8.959e-04 7.085e-04 *D INVX8 
filtro_pipelining_salida\[1\] O *L 0.000e+00 *S 1.973e-03 1.941e-03 
filtro_pipelining_salida\[0\] O *L 0.000e+00 *S 1.973e-03 1.941e-03 
filtro_pipelining_in\[15\] I *L 0.000e+00 *S 8.959e-04 7.085e-04 *D INVX8 
filtro_pipelining_in\[14\] I *L 0.000e+00 *S 8.959e-04 7.085e-04 *D INVX8 
filtro_pipelining_in\[13\] I *L 0.000e+00 *S 8.959e-04 7.085e-04 *D INVX8 
filtro_pipelining_in\[12\] I *L 0.000e+00 *S 8.959e-04 7.085e-04 *D INVX8 
filtro_pipelining_in\[11\] I *L 0.000e+00 *S 8.959e-04 7.085e-04 *D INVX8 
filtro_pipelining_in\[10\] I *L 0.000e+00 *S 8.959e-04 7.085e-04 *D INVX8 
filtro_pipelining_salida\[9\] O *L 0.000e+00 *S 1.973e-03 1.941e-03 
filtro_pipelining_salida\[8\] O *L 0.000e+00 *S 1.973e-03 1.941e-03 
filtro_pipelining_salida\[7\] O *L 0.000e+00 *S 1.973e-03 1.941e-03 
filtro_pipelining_salida\[6\] O *L 0.000e+00 *S 1.973e-03 1.941e-03 
filtro_pipelining_salida\[5\] O *L 0.000e+00 *S 1.973e-03 1.941e-03 
filtro_pipelining_salida\[4\] O *L 0.000e+00 *S 1.973e-03 1.941e-03 
filtro_pipelining_salida\[3\] O *L 0.000e+00 *S 1.973e-03 1.941e-03 
filtro_pipelining_salida\[2\] O *L 0.000e+00 *S 1.973e-03 1.941e-03 
filtro_pipelining_salida\[17\] O *L 0.000e+00 *S 1.973e-03 1.941e-03 
filtro_pipelining_salida\[16\] O *L 0.000e+00 *S 1.973e-03 1.941e-03 
filtro_pipelining_salida\[15\] O *L 0.000e+00 *S 1.973e-03 1.941e-03 
filtro_pipelining_salida\[14\] O *L 0.000e+00 *S 1.973e-03 1.941e-03 
filtro_pipelining_salida\[13\] O *L 0.000e+00 *S 1.973e-03 1.941e-03 
filtro_pipelining_salida\[12\] O *L 0.000e+00 *S 1.973e-03 1.941e-03 
filtro_pipelining_salida\[11\] O *L 0.000e+00 *S 1.973e-03 1.941e-03 
filtro_pipelining_salida\[10\] O *L 0.000e+00 *S 1.973e-03 1.941e-03 
filtro_pipelining_salida\[25\] O *L 0.000e+00 *S 1.973e-03 1.941e-03 
filtro_pipelining_salida\[24\] O *L 0.000e+00 *S 1.973e-03 1.941e-03 
filtro_pipelining_salida\[23\] O *L 0.000e+00 *S 1.973e-03 1.941e-03 
filtro_pipelining_salida\[22\] O *L 0.000e+00 *S 1.973e-03 1.941e-03 
filtro_pipelining_salida\[21\] O *L 0.000e+00 *S 1.973e-03 1.941e-03 
filtro_pipelining_salida\[20\] O *L 0.000e+00 *S 1.973e-03 1.941e-03 
filtro_pipelining_salida\[19\] O *L 0.000e+00 *S 1.973e-03 1.941e-03 
filtro_pipelining_salida\[18\] O *L 0.000e+00 *S 1.973e-03 1.941e-03 
filtro_pipelining_salida\[33\] O *L 0.000e+00 *S 1.973e-03 1.941e-03 
filtro_pipelining_salida\[32\] O *L 0.000e+00 *S 1.973e-03 1.941e-03 
filtro_pipelining_salida\[31\] O *L 0.000e+00 *S 1.973e-03 1.941e-03 
filtro_pipelining_salida\[30\] O *L 0.000e+00 *S 1.973e-03 1.941e-03 
filtro_pipelining_salida\[29\] O *L 0.000e+00 *S 1.973e-03 1.941e-03 
filtro_pipelining_salida\[28\] O *L 0.000e+00 *S 1.973e-03 1.941e-03 
filtro_pipelining_salida\[27\] O *L 0.000e+00 *S 1.973e-03 1.941e-03 
filtro_pipelining_salida\[26\] O *L 0.000e+00 *S 1.973e-03 1.941e-03 
filtro_pipelining_salida\[41\] O *L 0.000e+00 *S 1.973e-03 1.941e-03 
filtro_pipelining_salida\[40\] O *L 0.000e+00 *S 1.973e-03 1.941e-03 
filtro_pipelining_salida\[39\] O *L 0.000e+00 *S 1.973e-03 1.941e-03 
filtro_pipelining_salida\[38\] O *L 0.000e+00 *S 1.973e-03 1.941e-03 
filtro_pipelining_salida\[37\] O *L 0.000e+00 *S 1.973e-03 1.941e-03 
filtro_pipelining_salida\[36\] O *L 0.000e+00 *S 1.973e-03 1.941e-03 
filtro_pipelining_salida\[35\] O *L 0.000e+00 *S 1.973e-03 1.941e-03 
filtro_pipelining_salida\[34\] O *L 0.000e+00 *S 1.973e-03 1.941e-03 
filtro_pipelining_salida\[49\] O *L 0.000e+00 *S 1.973e-03 1.941e-03 
filtro_pipelining_salida\[48\] O *L 0.000e+00 *S 1.973e-03 1.941e-03 
filtro_pipelining_salida\[47\] O *L 0.000e+00 *S 1.973e-03 1.941e-03 
filtro_pipelining_salida\[46\] O *L 0.000e+00 *S 1.973e-03 1.941e-03 
filtro_pipelining_salida\[45\] O *L 0.000e+00 *S 1.973e-03 1.941e-03 
filtro_pipelining_salida\[44\] O *L 0.000e+00 *S 1.973e-03 1.941e-03 
filtro_pipelining_salida\[43\] O *L 0.000e+00 *S 1.973e-03 1.941e-03 
filtro_pipelining_salida\[42\] O *L 0.000e+00 *S 1.973e-03 1.941e-03 
filtro_pipelining_salida\[57\] O *L 0.000e+00 *S 1.973e-03 1.941e-03 
filtro_pipelining_salida\[56\] O *L 0.000e+00 *S 1.973e-03 1.941e-03 
filtro_pipelining_salida\[55\] O *L 0.000e+00 *S 1.973e-03 1.941e-03 
filtro_pipelining_salida\[54\] O *L 0.000e+00 *S 1.973e-03 1.941e-03 
filtro_pipelining_salida\[53\] O *L 0.000e+00 *S 1.973e-03 1.941e-03 
filtro_pipelining_salida\[52\] O *L 0.000e+00 *S 1.973e-03 1.941e-03 
filtro_pipelining_salida\[51\] O *L 0.000e+00 *S 1.973e-03 1.941e-03 
filtro_pipelining_salida\[50\] O *L 0.000e+00 *S 1.973e-03 1.941e-03 
filtro_pipelining_salida\[65\] O *L 0.000e+00 *S 1.973e-03 1.941e-03 
filtro_pipelining_salida\[64\] O *L 0.000e+00 *S 1.973e-03 1.941e-03 
filtro_pipelining_salida\[63\] O *L 0.000e+00 *S 1.973e-03 1.941e-03 
filtro_pipelining_salida\[62\] O *L 0.000e+00 *S 1.973e-03 1.941e-03 
filtro_pipelining_salida\[61\] O *L 0.000e+00 *S 1.973e-03 1.941e-03 
filtro_pipelining_salida\[60\] O *L 0.000e+00 *S 1.973e-03 1.941e-03 
filtro_pipelining_salida\[59\] O *L 0.000e+00 *S 1.973e-03 1.941e-03 
filtro_pipelining_salida\[58\] O *L 0.000e+00 *S 1.973e-03 1.941e-03 
filtro_pipelining_salida\[73\] O *L 0.000e+00 *S 1.973e-03 1.941e-03 
filtro_pipelining_salida\[72\] O *L 0.000e+00 *S 1.973e-03 1.941e-03 
filtro_pipelining_salida\[71\] O *L 0.000e+00 *S 1.973e-03 1.941e-03 
filtro_pipelining_salida\[70\] O *L 0.000e+00 *S 1.973e-03 1.941e-03 
filtro_pipelining_salida\[69\] O *L 0.000e+00 *S 1.973e-03 1.941e-03 
filtro_pipelining_salida\[68\] O *L 0.000e+00 *S 1.973e-03 1.941e-03 
filtro_pipelining_salida\[67\] O *L 0.000e+00 *S 1.973e-03 1.941e-03 
filtro_pipelining_salida\[66\] O *L 0.000e+00 *S 1.973e-03 1.941e-03 
filtro_pipelining_salida\[81\] O *L 0.000e+00 *S 1.973e-03 1.941e-03 
filtro_pipelining_salida\[80\] O *L 0.000e+00 *S 1.973e-03 1.941e-03 
filtro_pipelining_salida\[79\] O *L 0.000e+00 *S 1.973e-03 1.941e-03 
filtro_pipelining_salida\[78\] O *L 0.000e+00 *S 1.973e-03 1.941e-03 
filtro_pipelining_salida\[77\] O *L 0.000e+00 *S 1.973e-03 1.941e-03 
filtro_pipelining_salida\[76\] O *L 0.000e+00 *S 1.973e-03 1.941e-03 
filtro_pipelining_salida\[75\] O *L 0.000e+00 *S 1.973e-03 1.941e-03 
filtro_pipelining_salida\[74\] O *L 0.000e+00 *S 1.973e-03 1.941e-03 
filtro_pipelining_salida\[89\] O *L 0.000e+00 *S 1.973e-03 1.941e-03 
filtro_pipelining_salida\[88\] O *L 0.000e+00 *S 1.973e-03 1.941e-03 
filtro_pipelining_salida\[87\] O *L 0.000e+00 *S 1.973e-03 1.941e-03 
filtro_pipelining_salida\[86\] O *L 0.000e+00 *S 1.973e-03 1.941e-03 
filtro_pipelining_salida\[85\] O *L 0.000e+00 *S 1.973e-03 1.941e-03 
filtro_pipelining_salida\[84\] O *L 0.000e+00 *S 1.973e-03 1.941e-03 
filtro_pipelining_salida\[83\] O *L 0.000e+00 *S 1.973e-03 1.941e-03 
filtro_pipelining_salida\[82\] O *L 0.000e+00 *S 1.973e-03 1.941e-03 
filtro_pipelining_salida\[97\] O *L 0.000e+00 *S 1.973e-03 1.941e-03 
filtro_pipelining_salida\[96\] O *L 0.000e+00 *S 1.973e-03 1.941e-03 
filtro_pipelining_salida\[95\] O *L 0.000e+00 *S 1.973e-03 1.941e-03 
filtro_pipelining_salida\[94\] O *L 0.000e+00 *S 1.973e-03 1.941e-03 
filtro_pipelining_salida\[93\] O *L 0.000e+00 *S 1.973e-03 1.941e-03 
filtro_pipelining_salida\[92\] O *L 0.000e+00 *S 1.973e-03 1.941e-03 
filtro_pipelining_salida\[91\] O *L 0.000e+00 *S 1.973e-03 1.941e-03 
filtro_pipelining_salida\[90\] O *L 0.000e+00 *S 1.973e-03 1.941e-03 
filtro_pipelining_salida\[105\] O *L 0.000e+00 *S 1.973e-03 1.941e-03 
filtro_pipelining_salida\[104\] O *L 0.000e+00 *S 1.973e-03 1.941e-03 
filtro_pipelining_salida\[103\] O *L 0.000e+00 *S 1.973e-03 1.941e-03 
filtro_pipelining_salida\[102\] O *L 0.000e+00 *S 1.973e-03 1.941e-03 
filtro_pipelining_salida\[101\] O *L 0.000e+00 *S 1.973e-03 1.941e-03 
filtro_pipelining_salida\[100\] O *L 0.000e+00 *S 1.973e-03 1.941e-03 
filtro_pipelining_salida\[99\] O *L 0.000e+00 *S 1.973e-03 1.941e-03 
filtro_pipelining_salida\[98\] O *L 0.000e+00 *S 1.973e-03 1.941e-03 
filtro_pipelining_salida\[113\] O *L 0.000e+00 *S 1.973e-03 1.941e-03 
filtro_pipelining_salida\[112\] O *L 0.000e+00 *S 1.973e-03 1.941e-03 
filtro_pipelining_salida\[111\] O *L 0.000e+00 *S 1.973e-03 1.941e-03 
filtro_pipelining_salida\[110\] O *L 0.000e+00 *S 1.973e-03 1.941e-03 
filtro_pipelining_salida\[109\] O *L 0.000e+00 *S 1.973e-03 1.941e-03 
filtro_pipelining_salida\[108\] O *L 0.000e+00 *S 1.973e-03 1.941e-03 
filtro_pipelining_salida\[107\] O *L 0.000e+00 *S 1.973e-03 1.941e-03 
filtro_pipelining_salida\[106\] O *L 0.000e+00 *S 1.973e-03 1.941e-03 
filtro_pipelining_salida\[121\] O *L 0.000e+00 *S 1.973e-03 1.941e-03 
filtro_pipelining_salida\[120\] O *L 0.000e+00 *S 1.973e-03 1.941e-03 
filtro_pipelining_salida\[119\] O *L 0.000e+00 *S 1.973e-03 1.941e-03 
filtro_pipelining_salida\[118\] O *L 0.000e+00 *S 1.973e-03 1.941e-03 
filtro_pipelining_salida\[117\] O *L 0.000e+00 *S 1.973e-03 1.941e-03 
filtro_pipelining_salida\[116\] O *L 0.000e+00 *S 1.973e-03 1.941e-03 
filtro_pipelining_salida\[115\] O *L 0.000e+00 *S 1.973e-03 1.941e-03 
filtro_pipelining_salida\[114\] O *L 0.000e+00 *S 1.973e-03 1.941e-03 
reset I *L 0.000e+00 *S 7.128e-02 5.592e-02 *D INVX8 
filtro_pipelining_clk_2x I *L 0.000e+00 *S 0.000e+00 0.000e+00 
filtro_pipelining_salida\[127\] O *L 0.000e+00 *S 1.973e-03 1.941e-03 
filtro_pipelining_salida\[126\] O *L 0.000e+00 *S 1.973e-03 1.941e-03 
filtro_pipelining_salida\[125\] O *L 0.000e+00 *S 1.973e-03 1.941e-03 
filtro_pipelining_salida\[124\] O *L 0.000e+00 *S 1.973e-03 1.941e-03 
filtro_pipelining_salida\[123\] O *L 0.000e+00 *S 1.973e-03 1.941e-03 
filtro_pipelining_salida\[122\] O *L 0.000e+00 *S 1.973e-03 1.941e-03 

*D_NET n680 4.654e-01
*CONN
*I bajo_reg_pila_registro_reg_0_registro_tmp_reg_9_:QN O
*I in_reg_pila_registro_reg_1_registro_tmp_reg_9_:D I
*CAP
1 bajo_reg_pila_registro_reg_0_registro_tmp_reg_9_:QN 1.632e-01
2 in_reg_pila_registro_reg_1_registro_tmp_reg_9_:D 6.949e-02
3 n680:0 2.327e-01
*RES
1 n680:0 in_reg_pila_registro_reg_1_registro_tmp_reg_9_:D 6.116e-07
2 bajo_reg_pila_registro_reg_0_registro_tmp_reg_9_:QN n680:0 1.333e-06
*END

*D_NET n682 8.784e-01
*CONN
*I bajo_reg_pila_registro_reg_0_registro_tmp_reg_8_:QN O
*I in_reg_pila_registro_reg_1_registro_tmp_reg_8_:D I
*CAP
1 bajo_reg_pila_registro_reg_0_registro_tmp_reg_8_:QN 3.515e-01
2 in_reg_pila_registro_reg_1_registro_tmp_reg_8_:D 8.767e-02
3 n682:0 4.392e-01
*RES
1 n682:0 in_reg_pila_registro_reg_1_registro_tmp_reg_8_:D 7.948e-07
2 bajo_reg_pila_registro_reg_0_registro_tmp_reg_8_:QN n682:0 3.477e-06
*END

*D_NET n684 1.160e+00
*CONN
*I bajo_reg_pila_registro_reg_0_registro_tmp_reg_7_:QN O
*I in_reg_pila_registro_reg_1_registro_tmp_reg_7_:D I
*CAP
1 bajo_reg_pila_registro_reg_0_registro_tmp_reg_7_:QN 3.109e-01
2 in_reg_pila_registro_reg_1_registro_tmp_reg_7_:D 2.690e-01
3 n684:0 5.799e-01
*RES
1 n684:0 in_reg_pila_registro_reg_1_registro_tmp_reg_7_:D 3.016e-06
2 bajo_reg_pila_registro_reg_0_registro_tmp_reg_7_:QN n684:0 3.327e-06
*END

*D_NET n686 3.615e-01
*CONN
*I bajo_reg_pila_registro_reg_0_registro_tmp_reg_6_:QN O
*I in_reg_pila_registro_reg_1_registro_tmp_reg_6_:D I
*CAP
1 bajo_reg_pila_registro_reg_0_registro_tmp_reg_6_:QN 7.921e-03
2 in_reg_pila_registro_reg_1_registro_tmp_reg_6_:D 1.728e-01
3 n686:0 1.807e-01
*RES
1 n686:0 in_reg_pila_registro_reg_1_registro_tmp_reg_6_:D 1.904e-06
2 bajo_reg_pila_registro_reg_0_registro_tmp_reg_6_:QN n686:0 7.501e-08
*END

*D_NET n688 1.903e+00
*CONN
*I bajo_reg_pila_registro_reg_0_registro_tmp_reg_5_:QN O
*I in_reg_pila_registro_reg_1_registro_tmp_reg_5_:D I
*CAP
1 bajo_reg_pila_registro_reg_0_registro_tmp_reg_5_:QN 6.651e-01
2 in_reg_pila_registro_reg_1_registro_tmp_reg_5_:D 2.864e-01
3 n688:0 9.514e-01
*RES
1 n688:0 in_reg_pila_registro_reg_1_registro_tmp_reg_5_:D 3.012e-06
2 bajo_reg_pila_registro_reg_0_registro_tmp_reg_5_:QN n688:0 6.879e-06
*END

*D_NET n690 3.797e+00
*CONN
*I bajo_reg_pila_registro_reg_0_registro_tmp_reg_4_:QN O
*I in_reg_pila_registro_reg_1_registro_tmp_reg_4_:D I
*CAP
1 bajo_reg_pila_registro_reg_0_registro_tmp_reg_4_:QN 8.284e-01
2 in_reg_pila_registro_reg_1_registro_tmp_reg_4_:D 1.070e+00
3 n690:0 1.898e+00
*RES
1 n690:0 in_reg_pila_registro_reg_1_registro_tmp_reg_4_:D 1.059e-05
2 bajo_reg_pila_registro_reg_0_registro_tmp_reg_4_:QN n690:0 6.729e-06
*END

*D_NET n692 2.024e+00
*CONN
*I in_reg_pila_registro_reg_1_registro_tmp_reg_3_:D I
*I bajo_reg_pila_registro_reg_0_registro_tmp_reg_3_:QN O
*CAP
1 in_reg_pila_registro_reg_1_registro_tmp_reg_3_:D 9.964e-01
2 bajo_reg_pila_registro_reg_0_registro_tmp_reg_3_:QN 1.546e-02
3 n692:0 1.012e+00
*RES
1 n692:0 in_reg_pila_registro_reg_1_registro_tmp_reg_3_:D 8.873e-06
2 bajo_reg_pila_registro_reg_0_registro_tmp_reg_3_:QN n692:0 1.287e-07
*END

*D_NET n694 8.240e-01
*CONN
*I bajo_reg_pila_registro_reg_0_registro_tmp_reg_2_:QN O
*I in_reg_pila_registro_reg_1_registro_tmp_reg_2_:D I
*CAP
1 bajo_reg_pila_registro_reg_0_registro_tmp_reg_2_:QN 2.598e-01
2 in_reg_pila_registro_reg_1_registro_tmp_reg_2_:D 1.522e-01
3 n694:0 4.120e-01
*RES
1 n694:0 in_reg_pila_registro_reg_1_registro_tmp_reg_2_:D 1.349e-06
2 bajo_reg_pila_registro_reg_0_registro_tmp_reg_2_:QN n694:0 2.069e-06
*END

*D_NET n696 4.271e-01
*CONN
*I bajo_reg_pila_registro_reg_0_registro_tmp_reg_1_:QN O
*I in_reg_pila_registro_reg_1_registro_tmp_reg_1_:D I
*CAP
1 bajo_reg_pila_registro_reg_0_registro_tmp_reg_1_:QN 9.466e-03
2 in_reg_pila_registro_reg_1_registro_tmp_reg_1_:D 2.041e-01
3 n696:0 2.136e-01
*RES
1 n696:0 in_reg_pila_registro_reg_1_registro_tmp_reg_1_:D 2.088e-06
2 bajo_reg_pila_registro_reg_0_registro_tmp_reg_1_:QN n696:0 7.501e-08
*END

*D_NET n698 1.454e+00
*CONN
*I bajo_reg_pila_registro_reg_0_registro_tmp_reg_0_:QN O
*I in_reg_pila_registro_reg_1_registro_tmp_reg_0_:D I
*CAP
1 bajo_reg_pila_registro_reg_0_registro_tmp_reg_0_:QN 1.584e-01
2 in_reg_pila_registro_reg_1_registro_tmp_reg_0_:D 5.684e-01
3 n698:0 7.268e-01
*RES
1 n698:0 in_reg_pila_registro_reg_1_registro_tmp_reg_0_:D 5.970e-06
2 bajo_reg_pila_registro_reg_0_registro_tmp_reg_0_:QN n698:0 1.333e-06
*END

*D_NET n596 2.208e+00
*CONN
*I bajo_reg_pila_registro_reg_2_registro_tmp_reg_13_:QN O
*I in_reg_pila_registro_reg_3_registro_tmp_reg_13_:D I
*CAP
1 bajo_reg_pila_registro_reg_2_registro_tmp_reg_13_:QN 3.825e-01
2 in_reg_pila_registro_reg_3_registro_tmp_reg_13_:D 7.212e-01
3 n596:0 1.104e+00
*RES
1 n596:0 in_reg_pila_registro_reg_3_registro_tmp_reg_13_:D 7.452e-06
2 bajo_reg_pila_registro_reg_2_registro_tmp_reg_13_:QN n596:0 3.477e-06
*END

*D_NET n598 1.038e+00
*CONN
*I bajo_reg_pila_registro_reg_2_registro_tmp_reg_12_:QN O
*I in_reg_pila_registro_reg_3_registro_tmp_reg_12_:D I
*CAP
1 bajo_reg_pila_registro_reg_2_registro_tmp_reg_12_:QN 4.066e-01
2 in_reg_pila_registro_reg_3_registro_tmp_reg_12_:D 1.123e-01
3 n598:0 5.189e-01
*RES
1 n598:0 in_reg_pila_registro_reg_3_registro_tmp_reg_12_:D 9.795e-07
2 bajo_reg_pila_registro_reg_2_registro_tmp_reg_12_:QN n598:0 3.477e-06
*END

*D_NET n600 1.863e+00
*CONN
*I bajo_reg_pila_registro_reg_2_registro_tmp_reg_11_:QN O
*I in_reg_pila_registro_reg_3_registro_tmp_reg_11_:D I
*CAP
1 bajo_reg_pila_registro_reg_2_registro_tmp_reg_11_:QN 3.903e-01
2 in_reg_pila_registro_reg_3_registro_tmp_reg_11_:D 5.411e-01
3 n600:0 9.314e-01
*RES
1 n600:0 in_reg_pila_registro_reg_3_registro_tmp_reg_11_:D 5.417e-06
2 bajo_reg_pila_registro_reg_2_registro_tmp_reg_11_:QN n600:0 3.327e-06
*END

*D_NET n602 9.299e-01
*CONN
*I in_reg_pila_registro_reg_3_registro_tmp_reg_10_:D I
*I bajo_reg_pila_registro_reg_2_registro_tmp_reg_10_:QN O
*CAP
1 in_reg_pila_registro_reg_3_registro_tmp_reg_10_:D 4.092e-01
2 bajo_reg_pila_registro_reg_2_registro_tmp_reg_10_:QN 5.576e-02
3 n602:0 4.649e-01
*RES
1 n602:0 in_reg_pila_registro_reg_3_registro_tmp_reg_10_:D 3.477e-06
2 bajo_reg_pila_registro_reg_2_registro_tmp_reg_10_:QN n602:0 4.981e-07
*END

*D_NET n604 1.996e+00
*CONN
*I bajo_reg_pila_registro_reg_2_registro_tmp_reg_9_:QN O
*I in_reg_pila_registro_reg_3_registro_tmp_reg_9_:D I
*CAP
1 bajo_reg_pila_registro_reg_2_registro_tmp_reg_9_:QN 2.511e-01
2 in_reg_pila_registro_reg_3_registro_tmp_reg_9_:D 7.469e-01
3 n604:0 9.980e-01
*RES
1 n604:0 in_reg_pila_registro_reg_3_registro_tmp_reg_9_:D 7.455e-06
2 bajo_reg_pila_registro_reg_2_registro_tmp_reg_9_:QN n604:0 2.069e-06
*END

*D_NET n606 1.019e+00
*CONN
*I bajo_reg_pila_registro_reg_2_registro_tmp_reg_8_:QN O
*I in_reg_pila_registro_reg_3_registro_tmp_reg_8_:D I
*CAP
1 bajo_reg_pila_registro_reg_2_registro_tmp_reg_8_:QN 1.554e-01
2 in_reg_pila_registro_reg_3_registro_tmp_reg_8_:D 3.541e-01
3 n606:0 5.095e-01
*RES
1 n606:0 in_reg_pila_registro_reg_3_registro_tmp_reg_8_:D 3.750e-06
2 bajo_reg_pila_registro_reg_2_registro_tmp_reg_8_:QN n606:0 1.333e-06
*END

*D_NET n608 1.451e+00
*CONN
*I bajo_reg_pila_registro_reg_2_registro_tmp_reg_7_:QN O
*I in_reg_pila_registro_reg_3_registro_tmp_reg_7_:D I
*CAP
1 bajo_reg_pila_registro_reg_2_registro_tmp_reg_7_:QN 6.018e-01
2 in_reg_pila_registro_reg_3_registro_tmp_reg_7_:D 1.238e-01
3 n608:0 7.255e-01
*RES
1 n608:0 in_reg_pila_registro_reg_3_registro_tmp_reg_7_:D 1.166e-06
2 bajo_reg_pila_registro_reg_2_registro_tmp_reg_7_:QN n608:0 5.471e-06
*END

*D_NET n610 1.589e+00
*CONN
*I in_reg_pila_registro_reg_3_registro_tmp_reg_6_:D I
*I bajo_reg_pila_registro_reg_2_registro_tmp_reg_6_:QN O
*CAP
1 in_reg_pila_registro_reg_3_registro_tmp_reg_6_:D 7.203e-01
2 bajo_reg_pila_registro_reg_2_registro_tmp_reg_6_:QN 7.423e-02
3 n610:0 7.945e-01
*RES
1 n610:0 in_reg_pila_registro_reg_3_registro_tmp_reg_6_:D 6.879e-06
2 bajo_reg_pila_registro_reg_2_registro_tmp_reg_6_:QN n610:0 6.837e-07
*END

*D_NET n612 1.015e+00
*CONN
*I bajo_reg_pila_registro_reg_2_registro_tmp_reg_5_:QN O
*I in_reg_pila_registro_reg_3_registro_tmp_reg_5_:D I
*CAP
1 bajo_reg_pila_registro_reg_2_registro_tmp_reg_5_:QN 2.325e-01
2 in_reg_pila_registro_reg_3_registro_tmp_reg_5_:D 2.749e-01
3 n612:0 5.074e-01
*RES
1 n612:0 in_reg_pila_registro_reg_3_registro_tmp_reg_5_:D 2.829e-06
2 bajo_reg_pila_registro_reg_2_registro_tmp_reg_5_:QN n612:0 2.069e-06
*END

*D_NET n614 1.398e+00
*CONN
*I bajo_reg_pila_registro_reg_2_registro_tmp_reg_4_:QN O
*I in_reg_pila_registro_reg_3_registro_tmp_reg_4_:D I
*CAP
1 bajo_reg_pila_registro_reg_2_registro_tmp_reg_4_:QN 3.746e-01
2 in_reg_pila_registro_reg_3_registro_tmp_reg_4_:D 3.244e-01
3 n614:0 6.990e-01
*RES
1 n614:0 in_reg_pila_registro_reg_3_registro_tmp_reg_4_:D 3.196e-06
2 bajo_reg_pila_registro_reg_2_registro_tmp_reg_4_:QN n614:0 3.327e-06
*END

*D_NET n616 1.180e+00
*CONN
*I bajo_reg_pila_registro_reg_2_registro_tmp_reg_3_:QN O
*I in_reg_pila_registro_reg_3_registro_tmp_reg_3_:D I
*CAP
1 bajo_reg_pila_registro_reg_2_registro_tmp_reg_3_:QN 3.875e-01
2 in_reg_pila_registro_reg_3_registro_tmp_reg_3_:D 2.023e-01
3 n616:0 5.898e-01
*RES
1 n616:0 in_reg_pila_registro_reg_3_registro_tmp_reg_3_:D 1.906e-06
2 bajo_reg_pila_registro_reg_2_registro_tmp_reg_3_:QN n616:0 3.327e-06
*END

*D_NET n618 5.488e-01
*CONN
*I bajo_reg_pila_registro_reg_2_registro_tmp_reg_2_:QN O
*I in_reg_pila_registro_reg_3_registro_tmp_reg_2_:D I
*CAP
1 bajo_reg_pila_registro_reg_2_registro_tmp_reg_2_:QN 1.510e-01
2 in_reg_pila_registro_reg_3_registro_tmp_reg_2_:D 1.233e-01
3 n618:0 2.744e-01
*RES
1 n618:0 in_reg_pila_registro_reg_3_registro_tmp_reg_2_:D 1.167e-06
2 bajo_reg_pila_registro_reg_2_registro_tmp_reg_2_:QN n618:0 1.333e-06
*END

*D_NET n620 7.606e-01
*CONN
*I bajo_reg_pila_registro_reg_2_registro_tmp_reg_1_:QN O
*I in_reg_pila_registro_reg_3_registro_tmp_reg_1_:D I
*CAP
1 bajo_reg_pila_registro_reg_2_registro_tmp_reg_1_:QN 2.509e-01
2 in_reg_pila_registro_reg_3_registro_tmp_reg_1_:D 1.294e-01
3 n620:0 3.803e-01
*RES
1 n620:0 in_reg_pila_registro_reg_3_registro_tmp_reg_1_:D 1.166e-06
2 bajo_reg_pila_registro_reg_2_registro_tmp_reg_1_:QN n620:0 2.069e-06
*END

*D_NET n622 8.603e-01
*CONN
*I bajo_reg_pila_registro_reg_2_registro_tmp_reg_0_:QN O
*I in_reg_pila_registro_reg_3_registro_tmp_reg_0_:D I
*CAP
1 bajo_reg_pila_registro_reg_2_registro_tmp_reg_0_:QN 1.660e-01
2 in_reg_pila_registro_reg_3_registro_tmp_reg_0_:D 2.642e-01
3 n622:0 4.301e-01
*RES
1 n622:0 in_reg_pila_registro_reg_3_registro_tmp_reg_0_:D 2.646e-06
2 bajo_reg_pila_registro_reg_2_registro_tmp_reg_0_:QN n622:0 1.333e-06
*END

*D_NET n624 7.107e-01
*CONN
*I bajo_reg_pila_registro_reg_1_registro_tmp_reg_18_:QN O
*I in_reg_pila_registro_reg_2_registro_tmp_reg_17_:D I
*CAP
1 bajo_reg_pila_registro_reg_1_registro_tmp_reg_18_:QN 1.502e-01
2 in_reg_pila_registro_reg_2_registro_tmp_reg_17_:D 2.051e-01
3 n624:0 3.553e-01
*RES
1 n624:0 in_reg_pila_registro_reg_2_registro_tmp_reg_17_:D 2.088e-06
2 bajo_reg_pila_registro_reg_1_registro_tmp_reg_18_:QN n624:0 1.333e-06
*END

*D_NET n628 4.441e-01
*CONN
*I bajo_reg_pila_registro_reg_1_registro_tmp_reg_16_:QN O
*I in_reg_pila_registro_reg_2_registro_tmp_reg_16_:D I
*CAP
1 bajo_reg_pila_registro_reg_1_registro_tmp_reg_16_:QN 1.550e-01
2 in_reg_pila_registro_reg_2_registro_tmp_reg_16_:D 6.708e-02
3 n628:0 2.220e-01
*RES
1 n628:0 in_reg_pila_registro_reg_2_registro_tmp_reg_16_:D 6.101e-07
2 bajo_reg_pila_registro_reg_1_registro_tmp_reg_16_:QN n628:0 1.333e-06
*END

*D_NET n630 7.368e-01
*CONN
*I bajo_reg_pila_registro_reg_1_registro_tmp_reg_15_:QN O
*I in_reg_pila_registro_reg_2_registro_tmp_reg_15_:D I
*CAP
1 bajo_reg_pila_registro_reg_1_registro_tmp_reg_15_:QN 2.185e-01
2 in_reg_pila_registro_reg_2_registro_tmp_reg_15_:D 1.499e-01
3 n630:0 3.684e-01
*RES
1 n630:0 in_reg_pila_registro_reg_2_registro_tmp_reg_15_:D 1.534e-06
2 bajo_reg_pila_registro_reg_1_registro_tmp_reg_15_:QN n630:0 2.069e-06
*END

*D_NET n632 3.350e-01
*CONN
*I bajo_reg_pila_registro_reg_1_registro_tmp_reg_14_:QN O
*I in_reg_pila_registro_reg_2_registro_tmp_reg_14_:D I
*CAP
1 bajo_reg_pila_registro_reg_1_registro_tmp_reg_14_:QN 9.557e-03
2 in_reg_pila_registro_reg_2_registro_tmp_reg_14_:D 1.580e-01
3 n632:0 1.675e-01
*RES
1 n632:0 in_reg_pila_registro_reg_2_registro_tmp_reg_14_:D 1.534e-06
2 bajo_reg_pila_registro_reg_1_registro_tmp_reg_14_:QN n632:0 7.501e-08
*END

*D_NET n634 6.037e-01
*CONN
*I bajo_reg_pila_registro_reg_1_registro_tmp_reg_13_:QN O
*I in_reg_pila_registro_reg_2_registro_tmp_reg_13_:D I
*CAP
1 bajo_reg_pila_registro_reg_1_registro_tmp_reg_13_:QN 1.498e-01
2 in_reg_pila_registro_reg_2_registro_tmp_reg_13_:D 1.521e-01
3 n634:0 3.019e-01
*RES
1 n634:0 in_reg_pila_registro_reg_2_registro_tmp_reg_13_:D 1.536e-06
2 bajo_reg_pila_registro_reg_1_registro_tmp_reg_13_:QN n634:0 1.333e-06
*END

*D_NET n636 7.702e-01
*CONN
*I bajo_reg_pila_registro_reg_1_registro_tmp_reg_12_:QN O
*I in_reg_pila_registro_reg_2_registro_tmp_reg_12_:D I
*CAP
1 bajo_reg_pila_registro_reg_1_registro_tmp_reg_12_:QN 1.565e-01
2 in_reg_pila_registro_reg_2_registro_tmp_reg_12_:D 2.286e-01
3 n636:0 3.851e-01
*RES
1 n636:0 in_reg_pila_registro_reg_2_registro_tmp_reg_12_:D 2.274e-06
2 bajo_reg_pila_registro_reg_1_registro_tmp_reg_12_:QN n636:0 1.333e-06
*END

*D_NET n638 1.072e+00
*CONN
*I bajo_reg_pila_registro_reg_1_registro_tmp_reg_11_:QN O
*I in_reg_pila_registro_reg_2_registro_tmp_reg_11_:D I
*CAP
1 bajo_reg_pila_registro_reg_1_registro_tmp_reg_11_:QN 1.596e-01
2 in_reg_pila_registro_reg_2_registro_tmp_reg_11_:D 3.765e-01
3 n638:0 5.361e-01
*RES
1 n638:0 in_reg_pila_registro_reg_2_registro_tmp_reg_11_:D 3.752e-06
2 bajo_reg_pila_registro_reg_1_registro_tmp_reg_11_:QN n638:0 1.333e-06
*END

*D_NET n640 6.339e-01
*CONN
*I bajo_reg_pila_registro_reg_1_registro_tmp_reg_10_:QN O
*I in_reg_pila_registro_reg_2_registro_tmp_reg_10_:D I
*CAP
1 bajo_reg_pila_registro_reg_1_registro_tmp_reg_10_:QN 1.570e-01
2 in_reg_pila_registro_reg_2_registro_tmp_reg_10_:D 1.599e-01
3 n640:0 3.170e-01
*RES
1 n640:0 in_reg_pila_registro_reg_2_registro_tmp_reg_10_:D 1.534e-06
2 bajo_reg_pila_registro_reg_1_registro_tmp_reg_10_:QN n640:0 1.333e-06
*END

*D_NET n642 1.581e+00
*CONN
*I bajo_reg_pila_registro_reg_1_registro_tmp_reg_9_:QN O
*I in_reg_pila_registro_reg_2_registro_tmp_reg_9_:D I
*CAP
1 bajo_reg_pila_registro_reg_1_registro_tmp_reg_9_:QN 9.438e-03
2 in_reg_pila_registro_reg_2_registro_tmp_reg_9_:D 7.810e-01
3 n642:0 7.904e-01
*RES
1 n642:0 in_reg_pila_registro_reg_2_registro_tmp_reg_9_:D 7.816e-06
2 bajo_reg_pila_registro_reg_1_registro_tmp_reg_9_:QN n642:0 7.501e-08
*END

*D_NET n644 3.330e-01
*CONN
*I bajo_reg_pila_registro_reg_1_registro_tmp_reg_8_:QN O
*I in_reg_pila_registro_reg_2_registro_tmp_reg_8_:D I
*CAP
1 bajo_reg_pila_registro_reg_1_registro_tmp_reg_8_:QN 9.469e-03
2 in_reg_pila_registro_reg_2_registro_tmp_reg_8_:D 1.570e-01
3 n644:0 1.665e-01
*RES
1 n644:0 in_reg_pila_registro_reg_2_registro_tmp_reg_8_:D 1.534e-06
2 bajo_reg_pila_registro_reg_1_registro_tmp_reg_8_:QN n644:0 7.501e-08
*END

*D_NET n646 6.623e-01
*CONN
*I bajo_reg_pila_registro_reg_1_registro_tmp_reg_7_:QN O
*I in_reg_pila_registro_reg_2_registro_tmp_reg_7_:D I
*CAP
1 bajo_reg_pila_registro_reg_1_registro_tmp_reg_7_:QN 1.526e-01
2 in_reg_pila_registro_reg_2_registro_tmp_reg_7_:D 1.785e-01
3 n646:0 3.312e-01
*RES
1 n646:0 in_reg_pila_registro_reg_2_registro_tmp_reg_7_:D 1.718e-06
2 bajo_reg_pila_registro_reg_1_registro_tmp_reg_7_:QN n646:0 1.333e-06
*END

*D_NET n648 1.012e+00
*CONN
*I bajo_reg_pila_registro_reg_1_registro_tmp_reg_6_:QN O
*I in_reg_pila_registro_reg_2_registro_tmp_reg_6_:D I
*CAP
1 bajo_reg_pila_registro_reg_1_registro_tmp_reg_6_:QN 3.794e-01
2 in_reg_pila_registro_reg_2_registro_tmp_reg_6_:D 1.267e-01
3 n648:0 5.061e-01
*RES
1 n648:0 in_reg_pila_registro_reg_2_registro_tmp_reg_6_:D 1.164e-06
2 bajo_reg_pila_registro_reg_1_registro_tmp_reg_6_:QN n648:0 3.327e-06
*END

*D_NET n650 6.473e-01
*CONN
*I bajo_reg_pila_registro_reg_1_registro_tmp_reg_5_:QN O
*I in_reg_pila_registro_reg_2_registro_tmp_reg_5_:D I
*CAP
1 bajo_reg_pila_registro_reg_1_registro_tmp_reg_5_:QN 1.651e-01
2 in_reg_pila_registro_reg_2_registro_tmp_reg_5_:D 1.586e-01
3 n650:0 3.237e-01
*RES
1 n650:0 in_reg_pila_registro_reg_2_registro_tmp_reg_5_:D 1.534e-06
2 bajo_reg_pila_registro_reg_1_registro_tmp_reg_5_:QN n650:0 1.333e-06
*END

*D_NET n652 1.612e+00
*CONN
*I bajo_reg_pila_registro_reg_1_registro_tmp_reg_4_:QN O
*I in_reg_pila_registro_reg_2_registro_tmp_reg_4_:D I
*CAP
1 bajo_reg_pila_registro_reg_1_registro_tmp_reg_4_:QN 1.702e-01
2 in_reg_pila_registro_reg_2_registro_tmp_reg_4_:D 6.358e-01
3 n652:0 8.059e-01
*RES
1 n652:0 in_reg_pila_registro_reg_2_registro_tmp_reg_4_:D 6.336e-06
2 bajo_reg_pila_registro_reg_1_registro_tmp_reg_4_:QN n652:0 1.333e-06
*END

*D_NET n654 9.425e-01
*CONN
*I bajo_reg_pila_registro_reg_1_registro_tmp_reg_3_:QN O
*I in_reg_pila_registro_reg_2_registro_tmp_reg_3_:D I
*CAP
1 bajo_reg_pila_registro_reg_1_registro_tmp_reg_3_:QN 2.476e-01
2 in_reg_pila_registro_reg_2_registro_tmp_reg_3_:D 2.236e-01
3 n654:0 4.712e-01
*RES
1 n654:0 in_reg_pila_registro_reg_2_registro_tmp_reg_3_:D 2.089e-06
2 bajo_reg_pila_registro_reg_1_registro_tmp_reg_3_:QN n654:0 2.069e-06
*END

*D_NET n656 5.906e-01
*CONN
*I bajo_reg_pila_registro_reg_1_registro_tmp_reg_2_:QN O
*I in_reg_pila_registro_reg_2_registro_tmp_reg_2_:D I
*CAP
1 bajo_reg_pila_registro_reg_1_registro_tmp_reg_2_:QN 1.512e-01
2 in_reg_pila_registro_reg_2_registro_tmp_reg_2_:D 1.441e-01
3 n656:0 2.953e-01
*RES
1 n656:0 in_reg_pila_registro_reg_2_registro_tmp_reg_2_:D 1.349e-06
2 bajo_reg_pila_registro_reg_1_registro_tmp_reg_2_:QN n656:0 1.333e-06
*END

*D_NET n658 2.433e+00
*CONN
*I bajo_reg_pila_registro_reg_1_registro_tmp_reg_1_:QN O
*I in_reg_pila_registro_reg_2_registro_tmp_reg_1_:D I
*CAP
1 bajo_reg_pila_registro_reg_1_registro_tmp_reg_1_:QN 3.569e-01
2 in_reg_pila_registro_reg_2_registro_tmp_reg_1_:D 8.595e-01
3 n658:0 1.216e+00
*RES
1 n658:0 in_reg_pila_registro_reg_2_registro_tmp_reg_1_:D 8.559e-06
2 bajo_reg_pila_registro_reg_1_registro_tmp_reg_1_:QN n658:0 3.477e-06
*END

*D_NET n660 1.245e+00
*CONN
*I bajo_reg_pila_registro_reg_1_registro_tmp_reg_0_:QN O
*I in_reg_pila_registro_reg_2_registro_tmp_reg_0_:D I
*CAP
1 bajo_reg_pila_registro_reg_1_registro_tmp_reg_0_:QN 2.272e-01
2 in_reg_pila_registro_reg_2_registro_tmp_reg_0_:D 3.950e-01
3 n660:0 6.223e-01
*RES
1 n660:0 in_reg_pila_registro_reg_2_registro_tmp_reg_0_:D 4.123e-06
2 bajo_reg_pila_registro_reg_1_registro_tmp_reg_0_:QN n660:0 2.069e-06
*END

*D_NET n664 7.485e-01
*CONN
*I bajo_reg_pila_registro_reg_0_registro_tmp_reg_17_:QN O
*I in_reg_pila_registro_reg_1_registro_tmp_reg_18_:D I
*CAP
1 bajo_reg_pila_registro_reg_0_registro_tmp_reg_17_:QN 1.707e-01
2 in_reg_pila_registro_reg_1_registro_tmp_reg_18_:D 2.036e-01
3 n664:0 3.742e-01
*RES
1 n664:0 in_reg_pila_registro_reg_1_registro_tmp_reg_18_:D 1.903e-06
2 bajo_reg_pila_registro_reg_0_registro_tmp_reg_17_:QN n664:0 1.333e-06
*END

*D_NET n666 1.831e+00
*CONN
*I bajo_reg_pila_registro_reg_0_registro_tmp_reg_16_:QN O
*I in_reg_pila_registro_reg_1_registro_tmp_reg_16_:D I
*CAP
1 bajo_reg_pila_registro_reg_0_registro_tmp_reg_16_:QN 2.398e-01
2 in_reg_pila_registro_reg_1_registro_tmp_reg_16_:D 6.757e-01
3 n666:0 9.155e-01
*RES
1 n666:0 in_reg_pila_registro_reg_1_registro_tmp_reg_16_:D 6.521e-06